1

                    Execution started at 20170928.081833         



                    ---------------------------------------
                                     SWAN
                    SIMULATION OF WAVES IN NEAR SHORE AREAS
                             VERSION NUMBER 41.10               
                    ---------------------------------------


    
 PROJ 'test2' 'ca01'
    
 $
    
 SET level=0.00  NAUTICAL
    
 COORDINATES CARTESIAN
    
 $ ------------------------------------------------------------------------------
    
 $
    
 $ **** COMMANDS FOR MODEL DESCRIPTION ******************************************
    
 $ ------------------------------------------------------------------------------
    
 $ CGRID ->REG XPC YPC ALPC XLENC YLENC MXC MYC ->CIRC  MDC  FLOW FHIGH  MSC
    
 CGRID   396649  4128556 338 21600 40900 200 145  CIRCLE  72 0.0345 1.00  34
 Resolution in sigma-space: df/f =  0.1041
    
 $
    
 $ ------------------------------------------------------------------------------
    
 $
    
 $ **** COMMANDS FOR INPUT FIELDS ***********************************************
    
 $ ------------------------------------------------------------------------------
    
 $ INPGRID BOTTOM  REGULAR xpinp ypinp alpinp mxinp myinp dxinp dyinp
    
 INPGRID   BOTTOM  REGULAR 374599.965  4123039.233 0 717 504 100 100
    
 $
    
 $ READINP BOTTOM fac idla
    
 $
    
 $
    
 READINP BOTTOM -1 'topo_100m.dat' 1 0 FREE
    
 $
    
 $ ------------------------------------------------------------------------------
    
 $
    
 $ **** COMMANDS FOR INPUT BOUNDARY/INITIAL CONDITIONS **************************
    
 $ ------------------------------------------------------------------------------
    
 $ NO WIND
    
 BOUN SHAPE JONSWAP 3.3 PEAK  DSPR  DEGREES
    
 $
    
 $
    
 BOUN  SIDE E CON PAR 3 7 180 30
    
 $BOUN  SIDE S CON PAR 3 7 180 30
    
 $
    
 $ ------------------------------------------------------------------------------
    
 $
    
 $ **** COMMANDS FOR PHYSICS pagina 30 ******************************************
    
 $ ------------------------------------------------------------------------------
    
 $
    
 BREAKING
    
 OFF QUAD
    
 OFF WCAP
    
 GEN1
    
 FRICTION JONSWAP CON
    
 $
    
 $
    
 $ ------------------------------------------------------------------------------
    
 $
    
 $ **** COMMANDS FOR OUTPUT REQUESTS pagina 40 **********************************
    
 $ ------------------------------------------------------------------------------
    
 $
    
 $Station Nantucket. Location No. punto fuera bahia
    
 OUTPut OPTions TAB 16
    
 $POINT   'point1' 418909 4104220 &
    
 $401817  4099595
    
 BLOCK   'COMPGRID' NOHEADER 'batimetria.dep'
    
 $ specout pagina 92
    
 $ SPECOUT 'fuera' SPEC1D 'fuera_1D.spc' &
    
 $                 OUTPUT 19971001.000000 1. HR
    
 $ TABLE   'fuera' NOHEADER 'fuera.hs'       HS
    
 $
    
 TABLE 'COMPGRID' NOHEADER 'acap.lon'       XP
    
 TABLE 'COMPGRID' NOHEADER 'acap.lat'       YP
    
 TABLE 'COMPGRID' NOHEADER 'acap.dep'       DEPTH
    
 TABLE 'COMPGRID' NOHEADER 'acap.hs'        HS
    
 TABLE 'COMPGRID' NOHEADER 'acap.rtp'        RTP
    
 TABLE 'COMPGRID' NOHEADER 'acap.mdir'       DIR
    
 $NGRID 'nest1' 432146.9898 4579823.582 0 2800 2800 28 28
    
 $NESTOUT 'nest1' 'contornos.dat'
    
 $BLOCK 'COMPGRID' NOHEAD 'Malla_ext.dat' DEP 3 XP YP HSIGN TM02 RTP DIR
    
 $TABLE 'point1' HEAD 'juan.TBL' Distance DEP HS TM01 DIR XP YP PER PDIR
    
 $
    
 $ ------------------------------------------------------------------------------
    
 $
    
 $ **** GENERAL COMMANDS ********************************************************
    
 $ ------------------------------------------------------------------------------
    
 $
    
 TEST  1,0
    
 $ ------------------------------------------------------------------------------
    
 $
    
 $ **** COMPUTE COMMAND *********************************************************
    
 $ ------------------------------------------------------------------------------
    
 $
    
 COMPUTE
 ** Warning          : Corner of comp grid outside bottom grid
 Coordinates : 416676.194120464.50
 ** Warning          : (corner)point outside bottom grid
       Set of output locations: BOUND_02  coordinates: 416676.194120464.50
 ** Warning          : Limiter is de-activated in case of no quadruplets

----------------------------------------------------------------
                  COMPUTATIONAL PART OF SWAN
----------------------------------------------------------------

 Gridresolution       : MXC             201 MYC            146
                      : MCGRD         29347
                      : MSC              35 MDC             72
                      : MTC               1
                      : NSTATC            0 ITERMX          50
 Propagation flags    : ITFRE             1 IREFR            1
 Source term flags    : IBOT              1 ISURF            1
                      : IWCAP             0 IWIND            0
                      : ITRIAD            0 IQUAD            0
                      : IVEG              0 ITURBV           0
                      : IMUD              0
 Spatial step         : DX       0.1080E+03 DY      0.2821E+03
 Spectral bin         : df/f     0.1041E+00 DDIR    0.5000E+01
 Physical constants   : GRAV     0.9810E+01 RHO     0.1025E+04
 Wind input           : WSPEED   0.0000E+00 DIR     0.0000E+00
 Tail parameters      : E(f)     0.5000E+01 E(k)    0.2500E+01
                      : A(f)     0.6000E+01 A(k)    0.3000E+01
 Accuracy parameters  : DREL     0.1000E-01 NPNTS   0.9950E+02
                      : DHABS    0.5000E-02 CURVAT  0.5000E-02
                      : GRWMX    0.1000E+21
 Drying/flooding      : LEVEL    0.0000E+00 DEPMIN  0.5000E-01
 The nautical  convention for wind and wave directions is used
 Scheme for geographic propagation is SORDUP
 Scheme geogr. space  : PROPSC            2 ICMAX            7
 Scheme spectral space: CSS      0.5000E+00 CDD     0.5000E+00
 Current is off
 Quadruplets is off
 Triads is off
 JONSWAP (`73)        : GAMMA    0.3800E-01
 Vegetation is off
 Turbulence is off
 Fluid mud is off
 Whitecapping is off
 Battjes&Janssen (`78): ALPHA    0.1000E+01 GAMMA   0.7300E+00
 Set-up is off
 Diffraction is off
 Janssen (`89,`90)    : ALPHA    0.1000E-01 KAPPA   0.4100E+00
 Janssen (`89,`90)    : RHOA     0.1280E+01 RHOW    0.1025E+04

 1st and 2nd gen. wind: CF10     0.1880E+03 CF20    0.5900E+00
                      : CF30     0.1200E+00 CF40    0.2500E+03
                      : CF50     0.2300E-02 CF60   -0.2230E+00
                      : CF70     0.0000E+00 CF80   -0.5600E+00
                      : RHOAW    0.1249E-02 EDMLPM  0.3600E-02
                      : CDRAG    0.1230E-02 UMIN    0.1000E+01
                      : LIM_PM   0.1300E+00

 iteration    1; sweep 1
 iteration    1; sweep 2
 iteration    1; sweep 3
 iteration    1; sweep 4
 not possible to compute, first iteration

 iteration    2; sweep 1
 iteration    2; sweep 2
 iteration    2; sweep 3
 iteration    2; sweep 4
 accuracy OK in  53.65 % of wet grid points ( 99.50 % required)

 iteration    3; sweep 1
 iteration    3; sweep 2
 iteration    3; sweep 3
 iteration    3; sweep 4
 accuracy OK in   1.41 % of wet grid points ( 99.50 % required)

 iteration    4; sweep 1
 iteration    4; sweep 2
 iteration    4; sweep 3
 iteration    4; sweep 4
 accuracy OK in  54.37 % of wet grid points ( 99.50 % required)

 iteration    5; sweep 1
 iteration    5; sweep 2
 iteration    5; sweep 3
 iteration    5; sweep 4
 accuracy OK in  78.77 % of wet grid points ( 99.50 % required)

 iteration    6; sweep 1
 iteration    6; sweep 2
 iteration    6; sweep 3
 iteration    6; sweep 4
 accuracy OK in  90.40 % of wet grid points ( 99.50 % required)

 iteration    7; sweep 1
 iteration    7; sweep 2
 iteration    7; sweep 3
 iteration    7; sweep 4
 accuracy OK in  94.53 % of wet grid points ( 99.50 % required)

 iteration    8; sweep 1
 iteration    8; sweep 2
 iteration    8; sweep 3
 iteration    8; sweep 4
 accuracy OK in  96.69 % of wet grid points ( 99.50 % required)

 iteration    9; sweep 1
 iteration    9; sweep 2
 iteration    9; sweep 3
 iteration    9; sweep 4
 accuracy OK in  97.56 % of wet grid points ( 99.50 % required)

 iteration   10; sweep 1
 iteration   10; sweep 2
 iteration   10; sweep 3
 iteration   10; sweep 4
 accuracy OK in  97.88 % of wet grid points ( 99.50 % required)

 iteration   11; sweep 1
 iteration   11; sweep 2
 iteration   11; sweep 3
 iteration   11; sweep 4
 accuracy OK in  98.01 % of wet grid points ( 99.50 % required)

 iteration   12; sweep 1
 iteration   12; sweep 2
 iteration   12; sweep 3
 iteration   12; sweep 4
 accuracy OK in  98.33 % of wet grid points ( 99.50 % required)

 iteration   13; sweep 1
 iteration   13; sweep 2
 iteration   13; sweep 3
 iteration   13; sweep 4
 accuracy OK in  98.58 % of wet grid points ( 99.50 % required)

 iteration   14; sweep 1
 iteration   14; sweep 2
 iteration   14; sweep 3
 iteration   14; sweep 4
 accuracy OK in  98.73 % of wet grid points ( 99.50 % required)

 iteration   15; sweep 1
 iteration   15; sweep 2
 iteration   15; sweep 3
 iteration   15; sweep 4
 accuracy OK in  98.68 % of wet grid points ( 99.50 % required)

 iteration   16; sweep 1
 iteration   16; sweep 2
 iteration   16; sweep 3
 iteration   16; sweep 4
 accuracy OK in  99.17 % of wet grid points ( 99.50 % required)

 iteration   17; sweep 1
 iteration   17; sweep 2
 iteration   17; sweep 3
 iteration   17; sweep 4
 accuracy OK in  98.95 % of wet grid points ( 99.50 % required)

 iteration   18; sweep 1
 iteration   18; sweep 2
 iteration   18; sweep 3
 iteration   18; sweep 4
 accuracy OK in  99.08 % of wet grid points ( 99.50 % required)

 iteration   19; sweep 1
 iteration   19; sweep 2
 iteration   19; sweep 3
 iteration   19; sweep 4
 accuracy OK in  98.79 % of wet grid points ( 99.50 % required)

 iteration   20; sweep 1
 iteration   20; sweep 2
 iteration   20; sweep 3
 iteration   20; sweep 4
 accuracy OK in  99.05 % of wet grid points ( 99.50 % required)

 iteration   21; sweep 1
 iteration   21; sweep 2
 iteration   21; sweep 3
 iteration   21; sweep 4
 accuracy OK in  99.14 % of wet grid points ( 99.50 % required)

 iteration   22; sweep 1
 iteration   22; sweep 2
 iteration   22; sweep 3
 iteration   22; sweep 4
 accuracy OK in  99.29 % of wet grid points ( 99.50 % required)

 iteration   23; sweep 1
 iteration   23; sweep 2
 iteration   23; sweep 3
 iteration   23; sweep 4
 accuracy OK in  99.58 % of wet grid points ( 99.50 % required)

  ** WARNING : Differences in wave height at the boundary
 Relative difference between input and computation >=   0.10
                         Hs[m]      Hs[m]      Hs[-]
     ix    iy  index   (input) (computed) (relative)
  --------------------------------------------------
   201   146  29347       3.00       2.55       0.15
   201   145  29346       3.00       2.55       0.15
   201   144  29345       3.00       2.55       0.15
   201   143  29344       3.00       2.55       0.15
   201   142  29343       3.00       2.55       0.15
   201   141  29342       3.00       2.55       0.15
   201   140  29341       3.00       2.55       0.15
   201   139  29340       3.00       2.55       0.15
   201   138  29339       3.00       2.55       0.15
   201   137  29338       3.00       2.55       0.15
   201   136  29337       3.00       2.55       0.15
   201   135  29336       3.00       2.55       0.15
   201   134  29335       3.00       2.55       0.15
   201   133  29334       3.00       2.55       0.15
   201   132  29333       3.00       2.55       0.15
   201   131  29332       3.00       2.55       0.15
   201   130  29331       3.00       2.55       0.15
   201   129  29330       3.00       2.55       0.15
   201   128  29329       3.00       2.55       0.15
   201   127  29328       3.00       2.55       0.15
   201   126  29327       3.00       2.55       0.15
   201   125  29326       3.00       2.55       0.15
   201   124  29325       3.00       2.55       0.15
   201   123  29324       3.00       2.55       0.15
   201   122  29323       3.00       2.55       0.15
   201   121  29322       3.00       2.55       0.15
   201   120  29321       3.00       2.55       0.15
   201   119  29320       3.00       2.55       0.15
   201   118  29319       3.00       2.55       0.15
   201   117  29318       3.00       2.55       0.15
   201   116  29317       3.00       2.55       0.15
   201   115  29316       3.00       2.55       0.15
   201   114  29315       3.00       2.55       0.15
   201   113  29314       3.00       2.55       0.15
   201   112  29313       3.00       2.55       0.15
   201   111  29312       3.00       2.55       0.15
   201   110  29311       3.00       2.55       0.15
   201   109  29310       3.00       2.55       0.15
   201   108  29309       3.00       2.55       0.15
   201   107  29308       3.00       2.55       0.15
   201   106  29307       3.00       2.56       0.15
   201   105  29306       3.00       2.56       0.15
   201   104  29305       3.00       2.56       0.15
   201   103  29304       3.00       2.56       0.15
   201   102  29303       3.00       2.56       0.15
   201   101  29302       3.00       2.56       0.15
   201   100  29301       3.00       2.56       0.15
   201    99  29300       3.00       2.56       0.15
   201    98  29299       3.00       2.56       0.15
   201    97  29298       3.00       2.56       0.15
   201    96  29297       3.00       2.56       0.15
   201    95  29296       3.00       2.56       0.15
   201    94  29295       3.00       2.56       0.15
   201    93  29294       3.00       2.56       0.15
   201    92  29293       3.00       2.56       0.15
   201    91  29292       3.00       2.56       0.15
   201    90  29291       3.00       2.56       0.15
   201    89  29290       3.00       2.57       0.14
   201    88  29289       3.00       2.57       0.14
   201    87  29288       3.00       2.57       0.14
   201    86  29287       3.00       2.57       0.14
   201    85  29286       3.00       2.57       0.14
   201    84  29285       3.00       2.57       0.14
   201    83  29284       3.00       2.57       0.14
   201    82  29283       3.00       2.57       0.14
   201    81  29282       3.00       2.57       0.14
   201    80  29281       3.00       2.57       0.14
   201    79  29280       3.00       2.57       0.14
   201    78  29279       3.00       2.57       0.14
   201    77  29278       3.00       2.57       0.14
   201    76  29277       3.00       2.57       0.14
   201    75  29276       3.00       2.57       0.14
   201    74  29275       3.00       2.57       0.14
   201    73  29274       3.00       2.57       0.14
   201    72  29273       3.00       2.57       0.14
   201    71  29272       3.00       2.57       0.14
   201    70  29271       3.00       2.57       0.14
   201    69  29270       3.00       2.57       0.14
   201    68  29269       3.00       2.57       0.14
   201    67  29268       3.00       2.57       0.14
   201    66  29267       3.00       2.57       0.14
   201    65  29266       3.00       2.57       0.14
   201    64  29265       3.00       2.57       0.14
   201    63  29264       3.00       2.57       0.14
   201    62  29263       3.00       2.57       0.14
   201    61  29262       3.00       2.57       0.14
   201    60  29261       3.00       2.57       0.14
   201    59  29260       3.00       2.57       0.14
   201    58  29259       3.00       2.57       0.14
   201    57  29258       3.00       2.57       0.14
   201    56  29257       3.00       2.56       0.15
   201    55  29256       3.00       2.56       0.15
   201    54  29255       3.00       2.56       0.15
   201    53  29254       3.00       2.56       0.15
   201    52  29253       3.00       2.55       0.15
   201    51  29252       3.00       2.55       0.15
   201    50  29251       3.00       2.55       0.15
   201    49  29250       3.00       2.55       0.15
   201    48  29249       3.00       2.55       0.15
   201    47  29248       3.00       2.55       0.15
   201    46  29247       3.00       2.55       0.15
   201    45  29246       3.00       2.55       0.15
   201    44  29245       3.00       2.55       0.15
   201    43  29244       3.00       2.55       0.15
   201    42  29243       3.00       2.55       0.15
   201    41  29242       3.00       2.55       0.15
   201    40  29241       3.00       2.55       0.15
   201    39  29240       3.00       2.55       0.15
   201    38  29239       3.00       2.55       0.15
   201    37  29238       3.00       2.55       0.15
   201    36  29237       3.00       2.55       0.15
   201    35  29236       3.00       2.55       0.15
   201    34  29235       3.00       2.55       0.15
   201    33  29234       3.00       2.55       0.15
   201    32  29233       3.00       2.55       0.15
   201    31  29232       3.00       2.55       0.15
   201    30  29231       3.00       2.55       0.15
   201    29  29230       3.00       2.55       0.15
   201    28  29229       3.00       2.55       0.15
   201    27  29228       3.00       2.55       0.15
   201    26  29227       3.00       2.55       0.15
   201    25  29226       3.00       2.55       0.15
   201    24  29225       3.00       2.55       0.15
   201    23  29224       3.00       2.55       0.15
   201    22  29223       3.00       2.55       0.15
   201    21  29222       3.00       2.55       0.15
   201    20  29221       3.00       2.55       0.15
   201    19  29220       3.00       2.55       0.15
   201    18  29219       3.00       2.55       0.15
   201    17  29218       3.00       2.56       0.15
   201    16  29217       3.00       2.56       0.15
   201    15  29216       3.00       2.56       0.15
   201    14  29215       3.00       2.56       0.15
   201    13  29214       3.00       2.57       0.15
   201    12  29213       3.00       2.57       0.14
   201    11  29212       3.00       2.57       0.14
   201    10  29211       3.00       2.58       0.14
   201     9  29210       3.00       2.58       0.14
   201     8  29209       3.00       2.59       0.14
   201     7  29208       3.00       2.60       0.13
   201     6  29207       3.00       2.61       0.13
   201     5  29206       3.00       2.63       0.12
   201     4  29205       3.00       2.66       0.11

    
 STOP
