  **********************************************************
                     Welcome to XBeach
 
               version 1.22.5212M
               dateTue Oct  3 16:04:27 EDT 2017
     URL:URL: https://svn.oss.deltares.nl/repos/xbeach/trunk/src/xbeachlibrary
  **********************************************************
 
  Simulation started: YYYYMMDD    hh:mm:ss     time zone (UTC)
                      20171009  19:01:14     -0400
 
    running in:/home/vse/Neptune_Work_folder/XBeach/xbeach_simulations/tran2_test14
  General Input Module
  Reading input parameters:
  --------------------------------
  Physical processes:
   XBeach reading fromparams.txt
                    cyclic =0 (no record found, default value used)
                     swave =1 (no record found, default value used)
                single_dir =0
                     lwave =1 (no record found, default value used)
                      flow =1 (no record found, default value used)
                  sedtrans =1 (no record found, default value used)
                morphology =1 (no record found, default value used)
               avalanching =0
                      nonh =0 (no record found, default value used)
                    gwflow =0 (no record found, default value used)
                     ships =0 (no record found, default value used)
                vegetation =1
                  setbathy =0 (no record found, default value used)
                 viscosity =1 (no record found, default value used)
                 advection =1 (no record found, default value used)
                      wind =1 (no record found, default value used)
  --------------------------------
  Grid parameters:
                  gridform =xbeach (no record found, default value used)
                      xori =.0000
                      yori =.0000 (no record found, default value used)
                      alfa =.0000
                        nx =547
                        ny =0
                    posdwn =-1.0000
                   depfile =bed.dep
                     vardx =1
                        dx =-1.0000 (no record found, default value used)
                        dy =-1.0000 (no record found, default value used)
                     xfile =x.grd
                     yfile = None specified
                        nz =1 (no record found, default value used)
                  thetamin =.0000
                  thetamax =180.0000
                 thetanaut =1
                    dtheta =180.0000
  --------------------------------
  Model time parameters:
                       CFL =.7000
                     dtset =.0000 (no record found, default value used)
                     tstop =259200.0000
                  maxdtfac =50.0000 (no record found, default value used)
  --------------------------------
  Physical constants:
                       rho =1025.0000 (no record found, default value used)
                         g =9.8100 (no record found, default value used)
                depthscale =1.0000 (no record found, default value used)
  --------------------------------
  Initial conditions:
                zsinitfile = None specified
  --------------------------------
  Wave boundary condition parameters:
                    instat =jons
                    bcfile =jonswap.txt
                     taper =100.0000 (no record found, default value used)
                      nmax =.8000 (no record found, default value used)
               lateralwave =neumann (no record found, default value used)
  --------------------------------
  Wave-spectrum boundary condition parameters:
              nonhspectrum =0 (no record found, default value used)
                    random =1 (no record found, default value used)
                   fcutoff =.0000 (no record found, default value used)
                   trepfac =.0100 (no record found, default value used)
                   sprdthr =.0800 (no record found, default value used)
                Tm01switch =0 (no record found, default value used)
                        rt =1800.0000
                      dtbc =1.0000
              nspectrumloc =1 (no record found, default value used)
  --------------------------------
  Flow boundary condition parameters:
                     front =abs_1d
                      left =neumann
                     right =neumann
                      back =abs_1d
                       ARC =1 (no record found, default value used)
                     order =2.0000 (no record found, default value used)
                  freewave =0 (no record found, default value used)
                      epsi =-1.0000
                  tidetype =velocity (no record found, default value used)
  --------------------------------
  Tide boundary conditions:
                   tideloc =2
                paulrevere =land (no record found, default value used)
                   zs0file =tide.txt
  --------------------------------
  Discharge boundary conditions:
            disch_loc_file = None specified
     disch_timeseries_file = None specified
                ndischarge =0 (no record found, default value used)
               ntdischarge =0 (no record found, default value used)
                      beta =.1000 (no record found, default value used)
  --------------------------------
  Wave breaking parameters:
                     break =roelvink2 (no record found, default value used)
                     gamma =.5500 (no record found, default value used)
                    gammax =2.0000 (no record found, default value used)
                     alpha =1.0000 (no record found, default value used)
                         n =10.0000 (no record found, default value used)
                     delta =.0000 (no record found, default value used)
                        fw =.0000 (no record found, default value used)
                    fwfile = None specified
                  fwcutoff =1000.0000 (no record found, default value used)
              breakerdelay =1.0000 (no record found, default value used)
  --------------------------------
  Roller parameters:
                    roller =1 (no record found, default value used)
                       rfb =0 (no record found, default value used)
  --------------------------------
  Wave-current interaction parameters:
                       wci =0 (no record found, default value used)
                      hwci =.1000 (no record found, default value used)
                   hwcimax =100.0000 (no record found, default value used)
                      cats =4.0000 (no record found, default value used)
  --------------------------------
  Flow parameters:
               bedfriction =manning
               bedfricfile =bedfricfile.txt
  Warning: bed friction coefficient values from file 'bedfricfile.txt' will be used in computation
                       nuh =.1000 (no record found, default value used)
                    nuhfac =1.0000 (no record found, default value used)
                      smag =1 (no record found, default value used)
  --------------------------------
  Coriolis force parameters:
                    wearth =.0417 (no record found, default value used)
                       lat =.0000 (no record found, default value used)
  --------------------------------
  Wind parameters:
                      rhoa =1.2500 (no record found, default value used)
                        Cd =.0020 (no record found, default value used)
                  windfile = None specified
                     windv =.0000 (no record found, default value used)
                    windth =270.0000 (no record found, default value used)
  --------------------------------
  Sediment transport parameters:
                      form =vanthiel_vanrijn (no record found, default value used)
                  waveform =vanthiel (no record found, default value used)
                       sws =1 (no record found, default value used)
                       lws =1 (no record found, default value used)
                     BRfac =1.0000 (no record found, default value used)
                     facsl =1.6000 (no record found, default value used)
                        z0 =.0060 (no record found, default value used)
                      smax =-1.0000 (no record found, default value used)
                     tsfac =.1000 (no record found, default value used)
                     facua =.2000
                     facSk =.2000 (no record found, default value used)
                     facAs =.2000 (no record found, default value used)
                   turbadv =none (no record found, default value used)
                      turb =bore_averaged (no record found, default value used)
                     Tbfac =1.0000 (no record found, default value used)
                     Tsmin =.5000 (no record found, default value used)
                       lwt =0 (no record found, default value used)
                     betad =1.0000 (no record found, default value used)
                       sus =1 (no record found, default value used)
                       bed =1 (no record found, default value used)
                      bulk =0 (no record found, default value used)
                     facDc =1.0000 (no record found, default value used)
                fallvelred =0 (no record found, default value used)
                 dilatancy =0 (no record found, default value used)
               reposeangle =30.0000 (no record found, default value used)
               bdslpeffmag =roelvink_total (no record found, default value used)
               bdslpeffini =none (no record found, default value used)
               bdslpeffdir =none (no record found, default value used)
  --------------------------------
  Bed composition parameters:
                       ngd =1 (no record found, default value used)
                        nd =3 (no record found, default value used)
                       por =.4000 (no record found, default value used)
   D50 =.0002 (no record found, default value used)
   D90 =.0003 (no record found, default value used)
                      rhos =2650.0000 (no record found, default value used)
                       dzg =.1000 (no record found, default value used)
                      dzg1 =.1000 (no record found, default value used)
                      dzg2 =.1000 (no record found, default value used)
                      dzg3 =.1000 (no record found, default value used)
   sedcal =1.0000 (no record found, default value used)
   ucrcal =1.0000 (no record found, default value used)
  --------------------------------
  Morphology parameters:
                    morfac =1.0000
                 morfacopt =1 (no record found, default value used)
                  morstart =.0000
                   morstop =259200.0000 (no record found, default value used)
                    wetslp =.3000 (no record found, default value used)
                    dryslp =1.0000 (no record found, default value used)
                   hswitch =.1000 (no record found, default value used)
                     dzmax =.0500 (no record found, default value used)
                    struct =0 (no record found, default value used)
  --------------------------------
  Output variables:
                   timings =1 (no record found, default value used)
                    tunits = None specified
                    tstart =.0000
                      tint =259200.0000 Warning: value > recommended value of100000.0000
                  tsglobal = None specified
                     tintg =1200.0000
                  tspoints = None specified
                     tintp =259200.0000 (no record found, default value used)
                    tsmean = None specified
                     tintm =259200.0000
                nglobalvar =5
   nglobalvar: Will generate global output for variable:zb
   nglobalvar: Will generate global output for variable:zs
   nglobalvar: Will generate global output for variable:H
   nglobalvar: Will generate global output for variable:u
   nglobalvar: Will generate global output for variable:v
                   npoints =0 (no record found, default value used)
                  nrugauge =0 (no record found, default value used)
                 npointvar =0 (no record found, default value used)
                 nrugdepth =1 (no record found, default value used)
   rugdepth =.0000 (no record found, default value used)
                  nmeanvar =5
   nmeanvar: Will generate mean, min, max and variance output for variable:zb
   nmeanvar: Will generate mean, min, max and variance output for variable:zs
   nmeanvar: Will generate mean, min, max and variance output for variable:H
   nmeanvar: Will generate mean, min, max and variance output for variable:u
   nmeanvar: Will generate mean, min, max and variance output for variable:v
              outputformat =fortran
  --------------------------------
  Output projection:
                projection = None specified
                    rotate =1 (no record found, default value used)
  --------------------------------
  Vegetation parameters:
                veggiefile =vegetation.txt
             veggiemapfile =spartina_tran.txt
  --------------------------------
  Wave numerics parameters:
                    scheme =upwind_2 (no record found, default value used)
                    snells =1 (no record found, default value used)
  --------------------------------
  Flow numerics parameters:
                       eps =.0050 (no record found, default value used)
                    eps_sd =.5000 (no record found, default value used)
                      umin =.0000 (no record found, default value used)
                      hmin =.2000 (no record found, default value used)
                  secorder =0 (no record found, default value used)
  --------------------------------
  Sediment transport numerics parameters:
                  thetanum =1.0000 (no record found, default value used)
                sourcesink =0 (no record found, default value used)
                      cmax =.1000 (no record found, default value used)
  --------------------------------
  Bed update numerics parameters:
                   frac_dz =.7000 (no record found, default value used)
                    nd_var =2 (no record found, default value used)
                     split =1.0100 (no record found, default value used)
                     merge =.0100 (no record found, default value used)
  --------------------------------
  Finished reading input parameters
  --------------------------------
   Unknown, unused or multiple statements of parameterDTHETA_S inparams.txt
   Unknown, unused or multiple statements of parameterTIDELEN inparams.txt
   Unknown, unused or multiple statements of parameterZS0 inparams.txt
   Unknown, unused or multiple statements of parameterMPIBOUNDARY inparams.txt
  ------------------------------------
  Building Grid and Bathymetry
  ------------------------------------
  Initializing .....
   readtide: reading tide time series fromtide.txt ...
  --------------------------------
  Initializing spectral wave boundary conditions
  --------------------------------
  --------------------------------
  Initializing vegetation input settings
   XBeach reading fromspartina.txt
                      npts =2
                        zv =.0500
                        zv =.7500
                        bv =.0200
                        bv =.0200
                         N =200.0000
                         N =200.0000
                        Cd =1.0000
                        Cd =1.0000
   XBeach reading fromspartina2.txt
                      npts =2
                        zv =.0050
                        zv =1.2500
                        bv =.0300
                        bv =.0200
                         N =200.0000
                         N =200.0000
                        Cd =1.0000
                        Cd =1.0000
  --------------------------------
  Finished reading vegetation input...
  Fortran outputformat
  Setting up boundary conditions
  --------------------------------
  Calculating spectral wave boundary conditions
  --------------------------------
  Reading spectrum at location1
   waveparams: Reading fromjonswap.txt ...
   XBeach reading fromjonswap.txt
                    nmodal =1 (no record found, default value used)
                       Hm0 =.1000
                        fp =.1667
                  gammajsp =3.3000
                         s =10.0000
   tma =0 (no record found, default value used)
                   mainang =90.0000
                      fnyq =.4000
                       dfj =.0020 (no record found, default value used)
  Interpreting spectrum at location1
  Values calculated from interpolated spectrum:
  Hm0       =.10 m
  Trep      =5.50 s
  Mean dir  =90.43 degN
  Overall Trep from all spectra calculated:5.50 s
  Calculating Fourier components
  5.0% done
  10.0% done
  15.0% done
  20.0% done
  25.0% done
  30.0% done
  35.0% done
  40.0% done
  45.0% done
  50.0% done
  55.0% done
  60.0% done
  65.0% done
  70.0% done
  75.0% done
  80.0% done
  85.0% done
  90.0% done
  95.0% done
  100.0% done
  Wave energy outside computational domain at offshore boundary:.0%
  Calculating short wave time series for theta bin1 of1
  Y-point1 of1 done.
  Wave bin1 contains100.00% of total energy
   Writing wave energy toE_reuse.bcf ...
  file done
  Calculating primary wave interaction
  5.0% done
  10.0% done
  15.1% done
  20.1% done
  25.1% done
  30.1% done
  35.1% done
  40.2% done
  45.2% done
  50.2% done
  55.2% done
  60.2% done
  65.3% done
  70.3% done
  75.3% done
  80.3% done
  85.3% done
  90.3% done
  95.4% done
  100.0% done
  Calculating flux at boundary
  Flux1 of1
   Writing long wave mass flux toq_reuse.bcf ...
  file done
  --------------------------------
  Spectral wave boundary conditions complete
  --------------------------------
  Boundary conditions complete, starting computation
  Simulation  0.2 percent complete. Average dt  0.266 seconds
  Time remaining 35 minutes
  Simulation  0.5 percent complete. Average dt  0.263 seconds
  Time remaining 32 minutes
  Simulation  0.8 percent complete. Average dt  0.260 seconds
  Time remaining 32 minutes
  Simulation  1.0 percent complete. Average dt  0.262 seconds
  Time remaining 31 minutes
  Simulation  1.3 percent complete. Average dt  0.262 seconds
  Time remaining 31 minutes
  Simulation  1.6 percent complete. Average dt  0.259 seconds
  Time remaining 31 minutes
  Simulation  1.8 percent complete. Average dt  0.267 seconds
  Time remaining 30 minutes
  Simulation  2.1 percent complete. Average dt  0.265 seconds
  Time remaining 30 minutes
  Simulation  2.4 percent complete. Average dt  0.271 seconds
  Time remaining 30 minutes
  Simulation  2.6 percent complete. Average dt  0.275 seconds
  Time remaining 29 minutes
  Simulation  2.9 percent complete. Average dt  0.275 seconds
  Time remaining 29 minutes
  Simulation  3.2 percent complete. Average dt  0.280 seconds
  Time remaining 29 minutes
  Simulation  3.5 percent complete. Average dt  0.275 seconds
  Time remaining 29 minutes
  Simulation  3.8 percent complete. Average dt  0.278 seconds
  Time remaining 29 minutes
  Simulation  4.0 percent complete. Average dt  0.279 seconds
  Time remaining 29 minutes
  Simulation  4.3 percent complete. Average dt  0.275 seconds
  Time remaining 29 minutes
  Simulation  4.6 percent complete. Average dt  0.273 seconds
  Time remaining 29 minutes
  Simulation  4.9 percent complete. Average dt  0.266 seconds
  Time remaining 29 minutes
  Simulation  5.1 percent complete. Average dt  0.260 seconds
  Time remaining 29 minutes
  Simulation  5.4 percent complete. Average dt  0.259 seconds
  Time remaining 29 minutes
  Simulation  5.6 percent complete. Average dt  0.251 seconds
  Time remaining 30 minutes
  Simulation  5.9 percent complete. Average dt  0.245 seconds
  Time remaining 30 minutes
  Simulation  6.1 percent complete. Average dt  0.234 seconds
  Time remaining 31 minutes
  Simulation  6.4 percent complete. Average dt  0.225 seconds
  Time remaining 31 minutes
  Simulation  6.6 percent complete. Average dt  0.219 seconds
  Time remaining 32 minutes
  Simulation  6.8 percent complete. Average dt  0.212 seconds
  Time remaining 33 minutes
  Simulation  7.0 percent complete. Average dt  0.205 seconds
  Time remaining 33 minutes
  Simulation  7.2 percent complete. Average dt  0.202 seconds
  Time remaining 34 minutes
  Simulation  7.4 percent complete. Average dt  0.196 seconds
  Time remaining 34 minutes
  Simulation  7.6 percent complete. Average dt  0.193 seconds
  Time remaining 35 minutes
  Simulation  7.8 percent complete. Average dt  0.188 seconds
  Time remaining 35 minutes
  Simulation  8.0 percent complete. Average dt  0.187 seconds
  Time remaining 36 minutes
  Simulation  8.1 percent complete. Average dt  0.182 seconds
  Time remaining 37 minutes
  Simulation  8.3 percent complete. Average dt  0.180 seconds
  Time remaining 37 minutes
  Simulation  8.5 percent complete. Average dt  0.177 seconds
  Time remaining 38 minutes
  Simulation  8.6 percent complete. Average dt  0.176 seconds
  Time remaining 38 minutes
  Simulation  8.8 percent complete. Average dt  0.176 seconds
  Time remaining 39 minutes
  Simulation  9.0 percent complete. Average dt  0.173 seconds
  Time remaining 39 minutes
  Simulation  9.1 percent complete. Average dt  0.173 seconds
  Time remaining 39 minutes
  Simulation  9.3 percent complete. Average dt  0.171 seconds
  Time remaining 40 minutes
  Simulation  9.4 percent complete. Average dt  0.170 seconds
  Time remaining 40 minutes
  Simulation  9.6 percent complete. Average dt  0.170 seconds
  Time remaining 41 minutes
  Simulation  9.7 percent complete. Average dt  0.168 seconds
  Time remaining 41 minutes
  Simulation  9.9 percent complete. Average dt  0.168 seconds
  Time remaining 41 minutes
  Simulation 10.0 percent complete. Average dt  0.170 seconds
  Time remaining 41 minutes
  Simulation 10.2 percent complete. Average dt  0.170 seconds
  Time remaining 41 minutes
  Simulation 10.3 percent complete. Average dt  0.170 seconds
  Time remaining 41 minutes
  Simulation 10.5 percent complete. Average dt  0.172 seconds
  Time remaining 41 minutes
  Simulation 10.6 percent complete. Average dt  0.172 seconds
  Time remaining 41 minutes
  Simulation 10.8 percent complete. Average dt  0.173 seconds
  Time remaining 41 minutes
  Simulation 10.9 percent complete. Average dt  0.175 seconds
  Time remaining 41 minutes
  Simulation 11.1 percent complete. Average dt  0.175 seconds
  Time remaining 41 minutes
  Simulation 11.3 percent complete. Average dt  0.176 seconds
  Time remaining 41 minutes
  Simulation 11.4 percent complete. Average dt  0.177 seconds
  Time remaining 41 minutes
  Simulation 11.6 percent complete. Average dt  0.177 seconds
  Time remaining 41 minutes
  Simulation 11.7 percent complete. Average dt  0.178 seconds
  Time remaining 41 minutes
  Simulation 11.9 percent complete. Average dt  0.179 seconds
  Time remaining 40 minutes
  Simulation 12.0 percent complete. Average dt  0.179 seconds
  Time remaining 40 minutes
  Simulation 12.2 percent complete. Average dt  0.181 seconds
  Time remaining 40 minutes
  Simulation 12.4 percent complete. Average dt  0.181 seconds
  Time remaining 40 minutes
  Simulation 12.5 percent complete. Average dt  0.182 seconds
  Time remaining 40 minutes
  Simulation 12.7 percent complete. Average dt  0.184 seconds
  Time remaining 40 minutes
  Simulation 12.8 percent complete. Average dt  0.185 seconds
  Time remaining 40 minutes
  Simulation 13.0 percent complete. Average dt  0.186 seconds
  Time remaining 40 minutes
  Simulation 13.2 percent complete. Average dt  0.187 seconds
  Time remaining 40 minutes
  Simulation 13.3 percent complete. Average dt  0.188 seconds
  Time remaining 39 minutes
  Simulation 13.5 percent complete. Average dt  0.190 seconds
  Time remaining 39 minutes
  Simulation 13.7 percent complete. Average dt  0.191 seconds
  Time remaining 39 minutes
  Simulation 13.8 percent complete. Average dt  0.193 seconds
  Time remaining 39 minutes
  Simulation 14.0 percent complete. Average dt  0.194 seconds
  Time remaining 39 minutes
  Simulation 14.2 percent complete. Average dt  0.196 seconds
  Time remaining 38 minutes
  Simulation 14.3 percent complete. Average dt  0.199 seconds
  Time remaining 38 minutes
  Simulation 14.5 percent complete. Average dt  0.201 seconds
  Time remaining 38 minutes
  Simulation 14.7 percent complete. Average dt  0.204 seconds
  Time remaining 38 minutes
  Simulation 14.9 percent complete. Average dt  0.206 seconds
  Time remaining 38 minutes
  Simulation 15.0 percent complete. Average dt  0.209 seconds
  Time remaining 38 minutes
  Simulation 15.2 percent complete. Average dt  0.212 seconds
  Time remaining 37 minutes
  Simulation 15.4 percent complete. Average dt  0.214 seconds
  Time remaining 37 minutes
  Simulation 15.6 percent complete. Average dt  0.218 seconds
  Time remaining 37 minutes
  Simulation 15.8 percent complete. Average dt  0.218 seconds
  Time remaining 37 minutes
  Simulation 15.9 percent complete. Average dt  0.221 seconds
  Time remaining 36 minutes
  Simulation 16.1 percent complete. Average dt  0.222 seconds
  Time remaining 36 minutes
  Simulation 16.3 percent complete. Average dt  0.225 seconds
  Time remaining 36 minutes
  Simulation 16.5 percent complete. Average dt  0.228 seconds
  Time remaining 37 minutes
  Simulation 16.6 percent complete. Average dt  0.228 seconds
  Time remaining 37 minutes
  Simulation 16.8 percent complete. Average dt  0.230 seconds
  Time remaining 37 minutes
  Simulation 17.0 percent complete. Average dt  0.235 seconds
  Time remaining 37 minutes
  Simulation 17.2 percent complete. Average dt  0.235 seconds
  Time remaining 37 minutes
  Simulation 17.4 percent complete. Average dt  0.237 seconds
  Time remaining 36 minutes
  Simulation 17.5 percent complete. Average dt  0.239 seconds
  Time remaining 35 minutes
  Simulation 17.7 percent complete. Average dt  0.244 seconds
  Time remaining 36 minutes
  Simulation 17.9 percent complete. Average dt  0.246 seconds
  Time remaining 35 minutes
  Simulation 18.1 percent complete. Average dt  0.246 seconds
  Time remaining 35 minutes
  Simulation 18.3 percent complete. Average dt  0.251 seconds
  Time remaining 34 minutes
  Simulation 18.5 percent complete. Average dt  0.253 seconds
  Time remaining 34 minutes
  Simulation 18.7 percent complete. Average dt  0.254 seconds
  Time remaining 34 minutes
  Simulation 18.9 percent complete. Average dt  0.255 seconds
  Time remaining 34 minutes
  Simulation 19.1 percent complete. Average dt  0.260 seconds
  Time remaining 34 minutes
  Simulation 19.3 percent complete. Average dt  0.262 seconds
  Time remaining 34 minutes
  Simulation 19.5 percent complete. Average dt  0.261 seconds
  Time remaining 33 minutes
  Simulation 19.7 percent complete. Average dt  0.266 seconds
  Time remaining 33 minutes
  Simulation 19.9 percent complete. Average dt  0.267 seconds
  Time remaining 33 minutes
  Simulation 20.1 percent complete. Average dt  0.267 seconds
  Time remaining 33 minutes
  Simulation 20.3 percent complete. Average dt  0.268 seconds
  Time remaining 33 minutes
  Simulation 20.5 percent complete. Average dt  0.271 seconds
  Time remaining 32 minutes
  Simulation 20.7 percent complete. Average dt  0.270 seconds
  Time remaining 32 minutes
  Simulation 20.9 percent complete. Average dt  0.269 seconds
  Time remaining 32 minutes
  Simulation 21.1 percent complete. Average dt  0.271 seconds
  Time remaining 32 minutes
  Simulation 21.3 percent complete. Average dt  0.269 seconds
  Time remaining 32 minutes
  Simulation 21.5 percent complete. Average dt  0.267 seconds
  Time remaining 32 minutes
  Simulation 21.7 percent complete. Average dt  0.264 seconds
  Time remaining 32 minutes
  Simulation 21.9 percent complete. Average dt  0.268 seconds
  Time remaining 32 minutes
  Simulation 22.1 percent complete. Average dt  0.262 seconds
  Time remaining 32 minutes
  Simulation 22.3 percent complete. Average dt  0.258 seconds
  Time remaining 32 minutes
  Simulation 22.5 percent complete. Average dt  0.258 seconds
  Time remaining 32 minutes
  Simulation 22.7 percent complete. Average dt  0.251 seconds
  Time remaining 33 minutes
  Simulation 22.9 percent complete. Average dt  0.249 seconds
  Time remaining 33 minutes
  Simulation 23.1 percent complete. Average dt  0.242 seconds
  Time remaining 33 minutes
  Simulation 23.3 percent complete. Average dt  0.243 seconds
  Time remaining 33 minutes
  Simulation 23.5 percent complete. Average dt  0.239 seconds
  Time remaining 33 minutes
  Simulation 23.6 percent complete. Average dt  0.232 seconds
  Time remaining 34 minutes
  Simulation 23.8 percent complete. Average dt  0.232 seconds
  Time remaining 34 minutes
  Simulation 24.0 percent complete. Average dt  0.223 seconds
  Time remaining 34 minutes
  Simulation 24.2 percent complete. Average dt  0.220 seconds
  Time remaining 35 minutes
  Simulation 24.3 percent complete. Average dt  0.216 seconds
  Time remaining 35 minutes
  Simulation 24.5 percent complete. Average dt  0.208 seconds
  Time remaining 36 minutes
  Simulation 24.6 percent complete. Average dt  0.208 seconds
  Time remaining 36 minutes
  Simulation 24.8 percent complete. Average dt  0.203 seconds
  Time remaining 36 minutes
  Simulation 24.9 percent complete. Average dt  0.197 seconds
  Time remaining 37 minutes
  Simulation 25.1 percent complete. Average dt  0.197 seconds
  Time remaining 37 minutes
  Simulation 25.2 percent complete. Average dt  0.193 seconds
  Time remaining 37 minutes
  Simulation 25.4 percent complete. Average dt  0.190 seconds
  Time remaining 37 minutes
  Simulation 25.5 percent complete. Average dt  0.190 seconds
  Time remaining 37 minutes
  Simulation 25.7 percent complete. Average dt  0.186 seconds
  Time remaining 37 minutes
  Simulation 25.8 percent complete. Average dt  0.184 seconds
  Time remaining 37 minutes
  Simulation 26.0 percent complete. Average dt  0.184 seconds
  Time remaining 37 minutes
  Simulation 26.1 percent complete. Average dt  0.180 seconds
  Time remaining 37 minutes
  Simulation 26.2 percent complete. Average dt  0.178 seconds
  Time remaining 37 minutes
  Simulation 26.4 percent complete. Average dt  0.177 seconds
  Time remaining 37 minutes
  Simulation 26.5 percent complete. Average dt  0.174 seconds
  Time remaining 37 minutes
  Simulation 26.7 percent complete. Average dt  0.175 seconds
  Time remaining 36 minutes
  Simulation 26.8 percent complete. Average dt  0.175 seconds
  Time remaining 36 minutes
  Simulation 27.0 percent complete. Average dt  0.173 seconds
  Time remaining 36 minutes
  Simulation 27.1 percent complete. Average dt  0.174 seconds
  Time remaining 36 minutes
  Simulation 27.3 percent complete. Average dt  0.173 seconds
  Time remaining 36 minutes
  Simulation 27.4 percent complete. Average dt  0.172 seconds
  Time remaining 36 minutes
  Simulation 27.6 percent complete. Average dt  0.172 seconds
  Time remaining 36 minutes
  Simulation 27.7 percent complete. Average dt  0.172 seconds
  Time remaining 36 minutes
  Simulation 27.9 percent complete. Average dt  0.170 seconds
  Time remaining 36 minutes
  Simulation 28.0 percent complete. Average dt  0.172 seconds
  Time remaining 36 minutes
  Simulation 28.2 percent complete. Average dt  0.173 seconds
  Time remaining 35 minutes
  Simulation 28.3 percent complete. Average dt  0.172 seconds
  Time remaining 35 minutes
  Simulation 28.5 percent complete. Average dt  0.174 seconds
  Time remaining 35 minutes
  Simulation 28.6 percent complete. Average dt  0.175 seconds
  Time remaining 35 minutes
  Simulation 28.8 percent complete. Average dt  0.175 seconds
  Time remaining 35 minutes
  Simulation 29.0 percent complete. Average dt  0.176 seconds
  Time remaining 35 minutes
  Simulation 29.1 percent complete. Average dt  0.176 seconds
  Time remaining 34 minutes
  Simulation 29.3 percent complete. Average dt  0.177 seconds
  Time remaining 34 minutes
  Simulation 29.4 percent complete. Average dt  0.179 seconds
  Time remaining 34 minutes
  Simulation 29.6 percent complete. Average dt  0.180 seconds
  Time remaining 34 minutes
  Simulation 29.7 percent complete. Average dt  0.181 seconds
  Time remaining 34 minutes
  Simulation 29.9 percent complete. Average dt  0.182 seconds
  Time remaining 34 minutes
  Simulation 30.1 percent complete. Average dt  0.183 seconds
  Time remaining 33 minutes
  Simulation 30.2 percent complete. Average dt  0.185 seconds
  Time remaining 33 minutes
  Simulation 30.4 percent complete. Average dt  0.187 seconds
  Time remaining 33 minutes
  Simulation 30.5 percent complete. Average dt  0.187 seconds
  Time remaining 33 minutes
  Simulation 30.7 percent complete. Average dt  0.190 seconds
  Time remaining 33 minutes
  Simulation 30.9 percent complete. Average dt  0.192 seconds
  Time remaining 32 minutes
  Simulation 31.0 percent complete. Average dt  0.193 seconds
  Time remaining 32 minutes
  Simulation 31.2 percent complete. Average dt  0.195 seconds
  Time remaining 32 minutes
  Simulation 31.4 percent complete. Average dt  0.197 seconds
  Time remaining 32 minutes
  Simulation 31.6 percent complete. Average dt  0.200 seconds
  Time remaining 31 minutes
  Simulation 31.7 percent complete. Average dt  0.202 seconds
  Time remaining 31 minutes
  Simulation 31.9 percent complete. Average dt  0.204 seconds
  Time remaining 31 minutes
  Simulation 32.1 percent complete. Average dt  0.207 seconds
  Time remaining 31 minutes
  Simulation 32.3 percent complete. Average dt  0.210 seconds
  Time remaining 30 minutes
  Simulation 32.5 percent complete. Average dt  0.212 seconds
  Time remaining 31 minutes
  Simulation 32.6 percent complete. Average dt  0.214 seconds
  Time remaining 30 minutes
  Simulation 32.8 percent complete. Average dt  0.217 seconds
  Time remaining 30 minutes
  Simulation 33.0 percent complete. Average dt  0.220 seconds
  Time remaining 30 minutes
  Simulation 33.2 percent complete. Average dt  0.223 seconds
  Time remaining 30 minutes
  Simulation 33.4 percent complete. Average dt  0.225 seconds
  Time remaining 29 minutes
  Simulation 33.6 percent complete. Average dt  0.228 seconds
  Time remaining 29 minutes
  Simulation 33.8 percent complete. Average dt  0.230 seconds
  Time remaining 29 minutes
  Simulation 33.9 percent complete. Average dt  0.232 seconds
  Time remaining 29 minutes
  Simulation 34.1 percent complete. Average dt  0.233 seconds
  Time remaining 29 minutes
  Simulation 34.3 percent complete. Average dt  0.236 seconds
  Time remaining 30 minutes
  Simulation 34.5 percent complete. Average dt  0.240 seconds
  Time remaining 29 minutes
  Simulation 34.7 percent complete. Average dt  0.240 seconds
  Time remaining 29 minutes
  Simulation 34.9 percent complete. Average dt  0.242 seconds
  Time remaining 29 minutes
  Simulation 35.1 percent complete. Average dt  0.246 seconds
  Time remaining 28 minutes
  Simulation 35.3 percent complete. Average dt  0.248 seconds
  Time remaining 28 minutes
  Simulation 35.4 percent complete. Average dt  0.249 seconds
  Time remaining 28 minutes
  Simulation 35.6 percent complete. Average dt  0.252 seconds
  Time remaining 28 minutes
  Simulation 35.8 percent complete. Average dt  0.256 seconds
  Time remaining 27 minutes
  Simulation 36.0 percent complete. Average dt  0.256 seconds
  Time remaining 27 minutes
  Simulation 36.2 percent complete. Average dt  0.259 seconds
  Time remaining 27 minutes
  Simulation 36.4 percent complete. Average dt  0.263 seconds
  Time remaining 27 minutes
  Simulation 36.6 percent complete. Average dt  0.263 seconds
  Time remaining 27 minutes
  Simulation 36.8 percent complete. Average dt  0.264 seconds
  Time remaining 27 minutes
  Simulation 37.0 percent complete. Average dt  0.267 seconds
  Time remaining 27 minutes
  Simulation 37.3 percent complete. Average dt  0.271 seconds
  Time remaining 26 minutes
  Simulation 37.5 percent complete. Average dt  0.268 seconds
  Time remaining 26 minutes
  Simulation 37.7 percent complete. Average dt  0.270 seconds
  Time remaining 26 minutes
  Simulation 37.9 percent complete. Average dt  0.270 seconds
  Time remaining 26 minutes
  Simulation 38.1 percent complete. Average dt  0.268 seconds
  Time remaining 26 minutes
  Simulation 38.3 percent complete. Average dt  0.265 seconds
  Time remaining 26 minutes
  Simulation 38.5 percent complete. Average dt  0.265 seconds
  Time remaining 26 minutes
  Simulation 38.7 percent complete. Average dt  0.266 seconds
  Time remaining 26 minutes
  Simulation 38.9 percent complete. Average dt  0.259 seconds
  Time remaining 26 minutes
  Simulation 39.1 percent complete. Average dt  0.261 seconds
  Time remaining 26 minutes
  Simulation 39.3 percent complete. Average dt  0.254 seconds
  Time remaining 26 minutes
  Simulation 39.5 percent complete. Average dt  0.250 seconds
  Time remaining 26 minutes
  Simulation 39.7 percent complete. Average dt  0.246 seconds
  Time remaining 26 minutes
  Simulation 39.8 percent complete. Average dt  0.240 seconds
  Time remaining 27 minutes
  Simulation 40.0 percent complete. Average dt  0.242 seconds
  Time remaining 27 minutes
  Simulation 40.2 percent complete. Average dt  0.233 seconds
  Time remaining 27 minutes
  Simulation 40.4 percent complete. Average dt  0.230 seconds
  Time remaining 27 minutes
  Simulation 40.5 percent complete. Average dt  0.228 seconds
  Time remaining 27 minutes
  Simulation 40.7 percent complete. Average dt  0.219 seconds
  Time remaining 28 minutes
  Simulation 40.9 percent complete. Average dt  0.218 seconds
  Time remaining 28 minutes
  Simulation 41.0 percent complete. Average dt  0.211 seconds
  Time remaining 28 minutes
  Simulation 41.2 percent complete. Average dt  0.206 seconds
  Time remaining 28 minutes
  Simulation 41.4 percent complete. Average dt  0.206 seconds
  Time remaining 28 minutes
  Simulation 41.5 percent complete. Average dt  0.199 seconds
  Time remaining 29 minutes
  Simulation 41.6 percent complete. Average dt  0.195 seconds
  Time remaining 29 minutes
  Simulation 41.8 percent complete. Average dt  0.195 seconds
  Time remaining 29 minutes
  Simulation 41.9 percent complete. Average dt  0.190 seconds
  Time remaining 29 minutes
  Simulation 42.1 percent complete. Average dt  0.188 seconds
  Time remaining 30 minutes
  Simulation 42.2 percent complete. Average dt  0.186 seconds
  Time remaining 29 minutes
  Simulation 42.4 percent complete. Average dt  0.182 seconds
  Time remaining 30 minutes
  Simulation 42.5 percent complete. Average dt  0.180 seconds
  Time remaining 29 minutes
  Simulation 42.7 percent complete. Average dt  0.179 seconds
  Time remaining 29 minutes
  Simulation 42.8 percent complete. Average dt  0.175 seconds
  Time remaining 29 minutes
  Simulation 42.9 percent complete. Average dt  0.173 seconds
  Time remaining 29 minutes
  Simulation 43.1 percent complete. Average dt  0.171 seconds
  Time remaining 29 minutes
  Simulation 43.2 percent complete. Average dt  0.169 seconds
  Time remaining 29 minutes
  Simulation 43.4 percent complete. Average dt  0.169 seconds
  Time remaining 28 minutes
  Simulation 43.5 percent complete. Average dt  0.168 seconds
  Time remaining 29 minutes
  Simulation 43.7 percent complete. Average dt  0.166 seconds
  Time remaining 29 minutes
  Simulation 43.8 percent complete. Average dt  0.166 seconds
  Time remaining 29 minutes
  Simulation 44.0 percent complete. Average dt  0.164 seconds
  Time remaining 29 minutes
  Simulation 44.1 percent complete. Average dt  0.163 seconds
  Time remaining 29 minutes
  Simulation 44.2 percent complete. Average dt  0.163 seconds
  Time remaining 29 minutes
  Simulation 44.4 percent complete. Average dt  0.161 seconds
  Time remaining 29 minutes
  Simulation 44.5 percent complete. Average dt  0.160 seconds
  Time remaining 29 minutes
  Simulation 44.7 percent complete. Average dt  0.161 seconds
  Time remaining 29 minutes
  Simulation 44.8 percent complete. Average dt  0.162 seconds
  Time remaining 29 minutes
  Simulation 44.9 percent complete. Average dt  0.161 seconds
  Time remaining 29 minutes
  Simulation 45.1 percent complete. Average dt  0.162 seconds
  Time remaining 28 minutes
  Simulation 45.2 percent complete. Average dt  0.162 seconds
  Time remaining 28 minutes
  Simulation 45.4 percent complete. Average dt  0.162 seconds
  Time remaining 28 minutes
  Simulation 45.5 percent complete. Average dt  0.163 seconds
  Time remaining 28 minutes
  Simulation 45.7 percent complete. Average dt  0.163 seconds
  Time remaining 28 minutes
  Simulation 45.8 percent complete. Average dt  0.163 seconds
  Time remaining 28 minutes
  Simulation 45.9 percent complete. Average dt  0.163 seconds
  Time remaining 28 minutes
  Simulation 46.1 percent complete. Average dt  0.164 seconds
  Time remaining 28 minutes
  Simulation 46.2 percent complete. Average dt  0.165 seconds
  Time remaining 28 minutes
  Simulation 46.4 percent complete. Average dt  0.166 seconds
  Time remaining 28 minutes
  Simulation 46.5 percent complete. Average dt  0.167 seconds
  Time remaining 27 minutes
  Simulation 46.7 percent complete. Average dt  0.169 seconds
  Time remaining 27 minutes
  Simulation 46.8 percent complete. Average dt  0.169 seconds
  Time remaining 27 minutes
  Simulation 47.0 percent complete. Average dt  0.171 seconds
  Time remaining 27 minutes
  Simulation 47.1 percent complete. Average dt  0.172 seconds
  Time remaining 27 minutes
  Simulation 47.2 percent complete. Average dt  0.173 seconds
  Time remaining 27 minutes
  Simulation 47.4 percent complete. Average dt  0.175 seconds
  Time remaining 26 minutes
  Simulation 47.6 percent complete. Average dt  0.176 seconds
  Time remaining 26 minutes
  Simulation 47.7 percent complete. Average dt  0.178 seconds
  Time remaining 26 minutes
  Simulation 47.9 percent complete. Average dt  0.180 seconds
  Time remaining 26 minutes
  Simulation 48.0 percent complete. Average dt  0.182 seconds
  Time remaining 26 minutes
  Simulation 48.2 percent complete. Average dt  0.183 seconds
  Time remaining 25 minutes
  Simulation 48.3 percent complete. Average dt  0.186 seconds
  Time remaining 25 minutes
  Simulation 48.5 percent complete. Average dt  0.188 seconds
  Time remaining 25 minutes
  Simulation 48.6 percent complete. Average dt  0.189 seconds
  Time remaining 25 minutes
  Simulation 48.8 percent complete. Average dt  0.192 seconds
  Time remaining 25 minutes
  Simulation 49.0 percent complete. Average dt  0.194 seconds
  Time remaining 24 minutes
  Simulation 49.1 percent complete. Average dt  0.196 seconds
  Time remaining 24 minutes
  Simulation 49.3 percent complete. Average dt  0.199 seconds
  Time remaining 24 minutes
  Simulation 49.5 percent complete. Average dt  0.201 seconds
  Time remaining 24 minutes
  Simulation 49.6 percent complete. Average dt  0.205 seconds
  Time remaining 24 minutes
  Simulation 49.8 percent complete. Average dt  0.207 seconds
  Time remaining 23 minutes
  Simulation 50.0 percent complete. Average dt  0.210 seconds
  Time remaining 23 minutes
  Simulation 50.2 percent complete. Average dt  0.213 seconds
  Time remaining 23 minutes
  Simulation 50.4 percent complete. Average dt  0.215 seconds
  Time remaining 23 minutes
  Simulation 50.5 percent complete. Average dt  0.217 seconds
  Time remaining 22 minutes
  Simulation 50.7 percent complete. Average dt  0.219 seconds
  Time remaining 22 minutes
  Simulation 50.9 percent complete. Average dt  0.221 seconds
  Time remaining 22 minutes
  Simulation 51.1 percent complete. Average dt  0.225 seconds
  Time remaining 22 minutes
  Simulation 51.3 percent complete. Average dt  0.225 seconds
  Time remaining 22 minutes
  Simulation 51.5 percent complete. Average dt  0.227 seconds
  Time remaining 22 minutes
  Simulation 51.6 percent complete. Average dt  0.229 seconds
  Time remaining 22 minutes
  Simulation 51.8 percent complete. Average dt  0.231 seconds
  Time remaining 21 minutes
  Simulation 52.0 percent complete. Average dt  0.233 seconds
  Time remaining 21 minutes
  Simulation 52.2 percent complete. Average dt  0.232 seconds
  Time remaining 21 minutes
  Simulation 52.4 percent complete. Average dt  0.235 seconds
  Time remaining 21 minutes
  Simulation 52.6 percent complete. Average dt  0.235 seconds
  Time remaining 21 minutes
  Simulation 52.8 percent complete. Average dt  0.237 seconds
  Time remaining 20 minutes
  Simulation 53.0 percent complete. Average dt  0.242 seconds
  Time remaining 21 minutes
  Simulation 53.2 percent complete. Average dt  0.243 seconds
  Time remaining 20 minutes
  Simulation 53.4 percent complete. Average dt  0.247 seconds
  Time remaining 20 minutes
  Simulation 53.6 percent complete. Average dt  0.247 seconds
  Time remaining 21 minutes
  Simulation 53.8 percent complete. Average dt  0.253 seconds
  Time remaining 20 minutes
  Simulation 54.0 percent complete. Average dt  0.257 seconds
  Time remaining 20 minutes
  Simulation 54.2 percent complete. Average dt  0.256 seconds
  Time remaining 20 minutes
  Simulation 54.4 percent complete. Average dt  0.262 seconds
  Time remaining 20 minutes
  Simulation 54.6 percent complete. Average dt  0.264 seconds
  Time remaining 20 minutes
  Simulation 54.8 percent complete. Average dt  0.265 seconds
  Time remaining 19 minutes
  Simulation 55.0 percent complete. Average dt  0.265 seconds
  Time remaining 19 minutes
  Simulation 55.2 percent complete. Average dt  0.268 seconds
  Time remaining 19 minutes
  Simulation 55.4 percent complete. Average dt  0.270 seconds
  Time remaining 19 minutes
  Simulation 55.6 percent complete. Average dt  0.266 seconds
  Time remaining 19 minutes
  Simulation 55.8 percent complete. Average dt  0.270 seconds
  Time remaining 19 minutes
  Simulation 56.0 percent complete. Average dt  0.267 seconds
  Time remaining 19 minutes
  Simulation 56.1 percent complete. Average dt  0.264 seconds
  Time remaining 19 minutes
  Simulation 56.3 percent complete. Average dt  0.260 seconds
  Time remaining 19 minutes
  Simulation 56.5 percent complete. Average dt  0.258 seconds
  Time remaining 19 minutes
  Simulation 56.7 percent complete. Average dt  0.259 seconds
  Time remaining 19 minutes
  Simulation 56.9 percent complete. Average dt  0.251 seconds
  Time remaining 19 minutes
  Simulation 57.1 percent complete. Average dt  0.252 seconds
  Time remaining 19 minutes
  Simulation 57.3 percent complete. Average dt  0.246 seconds
  Time remaining 19 minutes
  Simulation 57.4 percent complete. Average dt  0.239 seconds
  Time remaining 19 minutes
  Simulation 57.6 percent complete. Average dt  0.238 seconds
  Time remaining 19 minutes
  Simulation 57.8 percent complete. Average dt  0.229 seconds
  Time remaining 20 minutes
  Simulation 58.0 percent complete. Average dt  0.229 seconds
  Time remaining 20 minutes
  Simulation 58.1 percent complete. Average dt  0.226 seconds
  Time remaining 20 minutes
  Simulation 58.3 percent complete. Average dt  0.217 seconds
  Time remaining 20 minutes
  Simulation 58.5 percent complete. Average dt  0.217 seconds
  Time remaining 20 minutes
  Simulation 58.6 percent complete. Average dt  0.213 seconds
  Time remaining 20 minutes
  Simulation 58.8 percent complete. Average dt  0.208 seconds
  Time remaining 20 minutes
  Simulation 58.9 percent complete. Average dt  0.207 seconds
  Time remaining 20 minutes
  Simulation 59.1 percent complete. Average dt  0.202 seconds
  Time remaining 21 minutes
  Simulation 59.2 percent complete. Average dt  0.198 seconds
  Time remaining 21 minutes
  Simulation 59.4 percent complete. Average dt  0.198 seconds
  Time remaining 21 minutes
  Simulation 59.5 percent complete. Average dt  0.194 seconds
  Time remaining 21 minutes
  Simulation 59.6 percent complete. Average dt  0.190 seconds
  Time remaining 21 minutes
  Simulation 59.8 percent complete. Average dt  0.190 seconds
  Time remaining 21 minutes
  Simulation 59.9 percent complete. Average dt  0.186 seconds
  Time remaining 21 minutes
  Simulation 60.1 percent complete. Average dt  0.184 seconds
  Time remaining 21 minutes
  Simulation 60.2 percent complete. Average dt  0.184 seconds
  Time remaining 21 minutes
  Simulation 60.3 percent complete. Average dt  0.180 seconds
  Time remaining 21 minutes
  Simulation 60.5 percent complete. Average dt  0.178 seconds
  Time remaining 21 minutes
  Simulation 60.6 percent complete. Average dt  0.177 seconds
  Time remaining 21 minutes
  Simulation 60.7 percent complete. Average dt  0.175 seconds
  Time remaining 21 minutes
  Simulation 60.9 percent complete. Average dt  0.172 seconds
  Time remaining 20 minutes
  Simulation 61.0 percent complete. Average dt  0.172 seconds
  Time remaining 20 minutes
  Simulation 61.2 percent complete. Average dt  0.169 seconds
  Time remaining 20 minutes
  Simulation 61.3 percent complete. Average dt  0.168 seconds
  Time remaining 20 minutes
  Simulation 61.5 percent complete. Average dt  0.170 seconds
  Time remaining 20 minutes
  Simulation 61.6 percent complete. Average dt  0.168 seconds
  Time remaining 20 minutes
  Simulation 61.7 percent complete. Average dt  0.168 seconds
  Time remaining 20 minutes
  Simulation 61.9 percent complete. Average dt  0.169 seconds
  Time remaining 20 minutes
  Simulation 62.0 percent complete. Average dt  0.168 seconds
  Time remaining 20 minutes
  Simulation 62.2 percent complete. Average dt  0.167 seconds
  Time remaining 20 minutes
  Simulation 62.3 percent complete. Average dt  0.168 seconds
  Time remaining 19 minutes
  Simulation 62.5 percent complete. Average dt  0.167 seconds
  Time remaining 20 minutes
  Simulation 62.6 percent complete. Average dt  0.166 seconds
  Time remaining 19 minutes
  Simulation 62.7 percent complete. Average dt  0.168 seconds
  Time remaining 19 minutes
  Simulation 62.9 percent complete. Average dt  0.169 seconds
  Time remaining 19 minutes
  Simulation 63.0 percent complete. Average dt  0.169 seconds
  Time remaining 19 minutes
  Simulation 63.2 percent complete. Average dt  0.170 seconds
  Time remaining 19 minutes
  Simulation 63.3 percent complete. Average dt  0.172 seconds
  Time remaining 19 minutes
  Simulation 63.5 percent complete. Average dt  0.172 seconds
  Time remaining 19 minutes
  Simulation 63.6 percent complete. Average dt  0.173 seconds
  Time remaining 18 minutes
  Simulation 63.8 percent complete. Average dt  0.174 seconds
  Time remaining 18 minutes
  Simulation 63.9 percent complete. Average dt  0.175 seconds
  Time remaining 18 minutes
  Simulation 64.1 percent complete. Average dt  0.176 seconds
  Time remaining 18 minutes
  Simulation 64.2 percent complete. Average dt  0.178 seconds
  Time remaining 18 minutes
  Simulation 64.4 percent complete. Average dt  0.179 seconds
  Time remaining 18 minutes
  Simulation 64.5 percent complete. Average dt  0.181 seconds
  Time remaining 18 minutes
  Simulation 64.7 percent complete. Average dt  0.183 seconds
  Time remaining 17 minutes
  Simulation 64.8 percent complete. Average dt  0.185 seconds
  Time remaining 17 minutes
  Simulation 65.0 percent complete. Average dt  0.187 seconds
  Time remaining 17 minutes
  Simulation 65.1 percent complete. Average dt  0.189 seconds
  Time remaining 17 minutes
  Simulation 65.3 percent complete. Average dt  0.191 seconds
  Time remaining 17 minutes
  Simulation 65.5 percent complete. Average dt  0.194 seconds
  Time remaining 17 minutes
  Simulation 65.6 percent complete. Average dt  0.196 seconds
  Time remaining 16 minutes
  Simulation 65.8 percent complete. Average dt  0.198 seconds
  Time remaining 16 minutes
  Simulation 66.0 percent complete. Average dt  0.200 seconds
  Time remaining 16 minutes
  Simulation 66.1 percent complete. Average dt  0.202 seconds
  Time remaining 16 minutes
  Simulation 66.3 percent complete. Average dt  0.206 seconds
  Time remaining 16 minutes
  Simulation 66.5 percent complete. Average dt  0.208 seconds
  Time remaining 15 minutes
  Simulation 66.7 percent complete. Average dt  0.210 seconds
  Time remaining 15 minutes
  Simulation 66.9 percent complete. Average dt  0.214 seconds
  Time remaining 15 minutes
  Simulation 67.0 percent complete. Average dt  0.216 seconds
  Time remaining 15 minutes
  Simulation 67.2 percent complete. Average dt  0.218 seconds
  Time remaining 15 minutes
  Simulation 67.4 percent complete. Average dt  0.219 seconds
  Time remaining 15 minutes
  Simulation 67.6 percent complete. Average dt  0.221 seconds
  Time remaining 15 minutes
  Simulation 67.7 percent complete. Average dt  0.214 seconds
  Time remaining 15 minutes
  Simulation 67.9 percent complete. Average dt  0.207 seconds
  Time remaining 15 minutes
  Simulation 68.1 percent complete. Average dt  0.208 seconds
  Time remaining 15 minutes
  Simulation 68.3 percent complete. Average dt  0.210 seconds
  Time remaining 15 minutes
  Simulation 68.4 percent complete. Average dt  0.211 seconds
  Time remaining 15 minutes
  Simulation 68.6 percent complete. Average dt  0.214 seconds
  Time remaining 14 minutes
  Simulation 68.8 percent complete. Average dt  0.217 seconds
  Time remaining 14 minutes
  Simulation 69.0 percent complete. Average dt  0.221 seconds
  Time remaining 14 minutes
  Simulation 69.1 percent complete. Average dt  0.226 seconds
  Time remaining 14 minutes
  Simulation 69.3 percent complete. Average dt  0.228 seconds
  Time remaining 14 minutes
  Simulation 69.5 percent complete. Average dt  0.231 seconds
  Time remaining 14 minutes
  Simulation 69.7 percent complete. Average dt  0.236 seconds
  Time remaining 13 minutes
  Simulation 69.9 percent complete. Average dt  0.239 seconds
  Time remaining 13 minutes
  Simulation 70.1 percent complete. Average dt  0.243 seconds
  Time remaining 13 minutes
  Simulation 70.3 percent complete. Average dt  0.244 seconds
  Time remaining 13 minutes
  Simulation 70.5 percent complete. Average dt  0.250 seconds
  Time remaining 13 minutes
  Simulation 70.6 percent complete. Average dt  0.254 seconds
  Time remaining 13 minutes
  Simulation 70.8 percent complete. Average dt  0.254 seconds
  Time remaining 13 minutes
  Simulation 71.0 percent complete. Average dt  0.260 seconds
  Time remaining 12 minutes
  Simulation 71.2 percent complete. Average dt  0.266 seconds
  Time remaining 12 minutes
  Simulation 71.4 percent complete. Average dt  0.267 seconds
  Time remaining 12 minutes
  Simulation 71.6 percent complete. Average dt  0.266 seconds
  Time remaining 12 minutes
  Simulation 71.8 percent complete. Average dt  0.270 seconds
  Time remaining 12 minutes
  Simulation 72.0 percent complete. Average dt  0.271 seconds
  Time remaining 12 minutes
  Simulation 72.2 percent complete. Average dt  0.268 seconds
  Time remaining 12 minutes
  Simulation 72.4 percent complete. Average dt  0.271 seconds
  Time remaining 12 minutes
  Simulation 72.6 percent complete. Average dt  0.270 seconds
  Time remaining 12 minutes
  Simulation 72.8 percent complete. Average dt  0.268 seconds
  Time remaining 12 minutes
  Simulation 73.0 percent complete. Average dt  0.264 seconds
  Time remaining 12 minutes
  Simulation 73.2 percent complete. Average dt  0.264 seconds
  Time remaining 12 minutes
  Simulation 73.4 percent complete. Average dt  0.265 seconds
  Time remaining 11 minutes
  Simulation 73.6 percent complete. Average dt  0.256 seconds
  Time remaining 12 minutes
  Simulation 73.8 percent complete. Average dt  0.259 seconds
  Time remaining 11 minutes
  Simulation 74.0 percent complete. Average dt  0.250 seconds
  Time remaining 12 minutes
  Simulation 74.2 percent complete. Average dt  0.245 seconds
  Time remaining 12 minutes
  Simulation 74.3 percent complete. Average dt  0.241 seconds
  Time remaining 12 minutes
  Simulation 74.5 percent complete. Average dt  0.234 seconds
  Time remaining 12 minutes
  Simulation 74.7 percent complete. Average dt  0.235 seconds
  Time remaining 12 minutes
  Simulation 74.9 percent complete. Average dt  0.229 seconds
  Time remaining 12 minutes
  Simulation 75.0 percent complete. Average dt  0.223 seconds
  Time remaining 12 minutes
  Simulation 75.2 percent complete. Average dt  0.223 seconds
  Time remaining 12 minutes
  Simulation 75.3 percent complete. Average dt  0.215 seconds
  Time remaining 12 minutes
  Simulation 75.5 percent complete. Average dt  0.211 seconds
  Time remaining 12 minutes
  Simulation 75.7 percent complete. Average dt  0.209 seconds
  Time remaining 12 minutes
  Simulation 75.8 percent complete. Average dt  0.202 seconds
  Time remaining 12 minutes
  Simulation 76.0 percent complete. Average dt  0.201 seconds
  Time remaining 12 minutes
  Simulation 76.1 percent complete. Average dt  0.199 seconds
  Time remaining 12 minutes
  Simulation 76.2 percent complete. Average dt  0.193 seconds
  Time remaining 12 minutes
  Simulation 76.4 percent complete. Average dt  0.191 seconds
  Time remaining 12 minutes
  Simulation 76.5 percent complete. Average dt  0.190 seconds
  Time remaining 12 minutes
  Simulation 76.7 percent complete. Average dt  0.185 seconds
  Time remaining 12 minutes
  Simulation 76.8 percent complete. Average dt  0.184 seconds
  Time remaining 12 minutes
  Simulation 76.9 percent complete. Average dt  0.182 seconds
  Time remaining 12 minutes
  Simulation 77.1 percent complete. Average dt  0.178 seconds
  Time remaining 12 minutes
  Simulation 77.2 percent complete. Average dt  0.177 seconds
  Time remaining 12 minutes
  Simulation 77.4 percent complete. Average dt  0.175 seconds
  Time remaining 12 minutes
  Simulation 77.5 percent complete. Average dt  0.172 seconds
  Time remaining 11 minutes
  Simulation 77.6 percent complete. Average dt  0.170 seconds
  Time remaining 11 minutes
  Simulation 77.8 percent complete. Average dt  0.169 seconds
  Time remaining 11 minutes
  Simulation 77.9 percent complete. Average dt  0.166 seconds
  Time remaining 11 minutes
  Simulation 78.1 percent complete. Average dt  0.167 seconds
  Time remaining 11 minutes
  Simulation 78.2 percent complete. Average dt  0.166 seconds
  Time remaining 11 minutes
  Simulation 78.3 percent complete. Average dt  0.164 seconds
  Time remaining 11 minutes
  Simulation 78.5 percent complete. Average dt  0.164 seconds
  Time remaining 11 minutes
  Simulation 78.6 percent complete. Average dt  0.164 seconds
  Time remaining 11 minutes
  Simulation 78.8 percent complete. Average dt  0.162 seconds
  Time remaining 11 minutes
  Simulation 78.9 percent complete. Average dt  0.162 seconds
  Time remaining 11 minutes
  Simulation 79.0 percent complete. Average dt  0.162 seconds
  Time remaining 11 minutes
  Simulation 79.2 percent complete. Average dt  0.160 seconds
  Time remaining 11 minutes
  Simulation 79.3 percent complete. Average dt  0.160 seconds
  Time remaining 11 minutes
  Simulation 79.4 percent complete. Average dt  0.162 seconds
  Time remaining 11 minutes
  Simulation 79.6 percent complete. Average dt  0.162 seconds
  Time remaining 10 minutes
  Simulation 79.7 percent complete. Average dt  0.162 seconds
  Time remaining 10 minutes
  Simulation 79.9 percent complete. Average dt  0.163 seconds
  Time remaining 10 minutes
  Simulation 80.0 percent complete. Average dt  0.163 seconds
  Time remaining 10 minutes
  Simulation 80.2 percent complete. Average dt  0.163 seconds
  Time remaining 10 minutes
  Simulation 80.3 percent complete. Average dt  0.164 seconds
  Time remaining 10 minutes
  Simulation 80.4 percent complete. Average dt  0.164 seconds
  Time remaining 10 minutes
  Simulation 80.6 percent complete. Average dt  0.165 seconds
  Time remaining 10 minutes
  Simulation 80.7 percent complete. Average dt  0.166 seconds
  Time remaining 10 minutes
  Simulation 80.9 percent complete. Average dt  0.167 seconds
  Time remaining 10 minutes
  Simulation 81.0 percent complete. Average dt  0.168 seconds
  Time remaining 10 minutes
  Simulation 81.2 percent complete. Average dt  0.169 seconds
  Time remaining  9 minutes and 54 seconds
  Simulation 81.3 percent complete. Average dt  0.171 seconds
  Time remaining  9 minutes and 47 seconds
  Simulation 81.5 percent complete. Average dt  0.172 seconds
  Time remaining  9 minutes and 45 seconds
  Simulation 81.6 percent complete. Average dt  0.173 seconds
  Time remaining  9 minutes and 33 seconds
  Simulation 81.8 percent complete. Average dt  0.175 seconds
  Time remaining  9 minutes and 28 seconds
  Simulation 81.9 percent complete. Average dt  0.176 seconds
  Time remaining  9 minutes and 20 seconds
  Simulation 82.1 percent complete. Average dt  0.178 seconds
  Time remaining  9 minutes and 14 seconds
  Simulation 82.2 percent complete. Average dt  0.180 seconds
  Time remaining  9 minutes and  6 seconds
  Simulation 82.4 percent complete. Average dt  0.182 seconds
  Time remaining  8 minutes and 59 seconds
  Simulation 82.5 percent complete. Average dt  0.184 seconds
  Time remaining  8 minutes and 51 seconds
  Simulation 82.7 percent complete. Average dt  0.186 seconds
  Time remaining  8 minutes and 44 seconds
  Simulation 82.9 percent complete. Average dt  0.188 seconds
  Time remaining  8 minutes and 39 seconds
  Simulation 83.0 percent complete. Average dt  0.190 seconds
  Time remaining  8 minutes and 30 seconds
  Simulation 83.2 percent complete. Average dt  0.193 seconds
  Time remaining  8 minutes and 22 seconds
  Simulation 83.3 percent complete. Average dt  0.195 seconds
  Time remaining  8 minutes and 15 seconds
  Simulation 83.5 percent complete. Average dt  0.198 seconds
  Time remaining  8 minutes and  7 seconds
  Simulation 83.7 percent complete. Average dt  0.200 seconds
  Time remaining  7 minutes and 59 seconds
  Simulation 83.8 percent complete. Average dt  0.202 seconds
  Time remaining  7 minutes and 52 seconds
  Simulation 84.0 percent complete. Average dt  0.205 seconds
  Time remaining  7 minutes and 44 seconds
  Simulation 84.2 percent complete. Average dt  0.208 seconds
  Time remaining  7 minutes and 37 seconds
  Simulation 84.4 percent complete. Average dt  0.211 seconds
  Time remaining  7 minutes and 28 seconds
  Simulation 84.5 percent complete. Average dt  0.214 seconds
  Time remaining  7 minutes and 20 seconds
  Simulation 84.7 percent complete. Average dt  0.216 seconds
  Time remaining  7 minutes and 13 seconds
  Simulation 84.9 percent complete. Average dt  0.220 seconds
  Time remaining  7 minutes and  4 seconds
  Simulation 85.1 percent complete. Average dt  0.222 seconds
  Time remaining  7 minutes and  2 seconds
  Simulation 85.3 percent complete. Average dt  0.217 seconds
  Time remaining  7 minutes and  0 seconds
  Simulation 85.4 percent complete. Average dt  0.202 seconds
  Time remaining  7 minutes and  7 seconds
  Simulation 85.6 percent complete. Average dt  0.196 seconds
  Time remaining  7 minutes and  8 seconds
  Simulation 85.8 percent complete. Average dt  0.189 seconds
  Time remaining  7 minutes and 16 seconds
  Simulation 85.9 percent complete. Average dt  0.189 seconds
  Time remaining  7 minutes and 12 seconds
  Simulation 86.1 percent complete. Average dt  0.193 seconds
  Time remaining  7 minutes and  3 seconds
  Simulation 86.2 percent complete. Average dt  0.197 seconds
  Time remaining  6 minutes and 53 seconds
  Simulation 86.4 percent complete. Average dt  0.202 seconds
  Time remaining  6 minutes and 44 seconds
  Simulation 86.6 percent complete. Average dt  0.206 seconds
  Time remaining  6 minutes and 35 seconds
  Simulation 86.7 percent complete. Average dt  0.210 seconds
  Time remaining  6 minutes and 24 seconds
  Simulation 86.9 percent complete. Average dt  0.213 seconds
  Time remaining  6 minutes and 10 seconds
  Simulation 87.1 percent complete. Average dt  0.220 seconds
  Time remaining  5 minutes and 60 seconds
  Simulation 87.3 percent complete. Average dt  0.225 seconds
  Time remaining  5 minutes and 55 seconds
  Simulation 87.5 percent complete. Average dt  0.227 seconds
  Time remaining  5 minutes and 52 seconds
  Simulation 87.7 percent complete. Average dt  0.232 seconds
  Time remaining  5 minutes and 44 seconds
  Simulation 87.9 percent complete. Average dt  0.236 seconds
  Time remaining  5 minutes and 37 seconds
  Simulation 88.0 percent complete. Average dt  0.237 seconds
  Time remaining  5 minutes and 35 seconds
  Simulation 88.2 percent complete. Average dt  0.239 seconds
  Time remaining  5 minutes and 33 seconds
  Simulation 88.4 percent complete. Average dt  0.241 seconds
  Time remaining  5 minutes and 26 seconds
  Simulation 88.6 percent complete. Average dt  0.247 seconds
  Time remaining  5 minutes and 17 seconds
  Simulation 88.8 percent complete. Average dt  0.246 seconds
  Time remaining  5 minutes and 13 seconds
  Simulation 89.0 percent complete. Average dt  0.250 seconds
  Time remaining  5 minutes and  5 seconds
  Simulation 89.2 percent complete. Average dt  0.252 seconds
  Time remaining  4 minutes and 59 seconds
  Simulation 89.4 percent complete. Average dt  0.261 seconds
  Time remaining  4 minutes and 51 seconds
  Simulation 89.6 percent complete. Average dt  0.263 seconds
  Time remaining  4 minutes and 45 seconds
  Simulation 89.7 percent complete. Average dt  0.260 seconds
  Time remaining  4 minutes and 42 seconds
  Simulation 89.9 percent complete. Average dt  0.261 seconds
  Time remaining  4 minutes and 36 seconds
  Simulation 90.1 percent complete. Average dt  0.261 seconds
  Time remaining  4 minutes and 30 seconds
  Simulation 90.3 percent complete. Average dt  0.260 seconds
  Time remaining  4 minutes and 25 seconds
  Simulation 90.5 percent complete. Average dt  0.261 seconds
  Time remaining  4 minutes and 20 seconds
  Simulation 90.7 percent complete. Average dt  0.261 seconds
  Time remaining  4 minutes and 14 seconds
  Simulation 90.9 percent complete. Average dt  0.261 seconds
  Time remaining  4 minutes and  9 seconds
  Simulation 91.1 percent complete. Average dt  0.258 seconds
  Time remaining  4 minutes and  5 seconds
  Simulation 91.3 percent complete. Average dt  0.260 seconds
  Time remaining  3 minutes and 59 seconds
  Simulation 91.5 percent complete. Average dt  0.260 seconds
  Time remaining  3 minutes and 54 seconds
  Simulation 91.7 percent complete. Average dt  0.251 seconds
  Time remaining  3 minutes and 53 seconds
  Simulation 91.9 percent complete. Average dt  0.253 seconds
  Time remaining  3 minutes and 46 seconds
  Simulation 92.0 percent complete. Average dt  0.247 seconds
  Time remaining  3 minutes and 44 seconds
  Simulation 92.2 percent complete. Average dt  0.241 seconds
  Time remaining  3 minutes and 42 seconds
  Simulation 92.4 percent complete. Average dt  0.237 seconds
  Time remaining  3 minutes and 39 seconds
  Simulation 92.6 percent complete. Average dt  0.231 seconds
  Time remaining  3 minutes and 36 seconds
  Simulation 92.7 percent complete. Average dt  0.233 seconds
  Time remaining  3 minutes and 30 seconds
  Simulation 92.9 percent complete. Average dt  0.227 seconds
  Time remaining  3 minutes and 28 seconds
  Simulation 93.1 percent complete. Average dt  0.220 seconds
  Time remaining  3 minutes and 26 seconds
  Simulation 93.2 percent complete. Average dt  0.222 seconds
  Time remaining  3 minutes and 21 seconds
  Simulation 93.4 percent complete. Average dt  0.216 seconds
  Time remaining  3 minutes and 19 seconds
  Simulation 93.5 percent complete. Average dt  0.211 seconds
  Time remaining  3 minutes and 16 seconds
  Simulation 93.7 percent complete. Average dt  0.210 seconds
  Time remaining  3 minutes and 13 seconds
  Simulation 93.9 percent complete. Average dt  0.203 seconds
  Time remaining  3 minutes and 11 seconds
  Simulation 94.0 percent complete. Average dt  0.202 seconds
  Time remaining  3 minutes and  7 seconds
  Simulation 94.2 percent complete. Average dt  0.201 seconds
  Time remaining  3 minutes and  3 seconds
  Simulation 94.3 percent complete. Average dt  0.195 seconds
  Time remaining  3 minutes and  2 seconds
  Simulation 94.4 percent complete. Average dt  0.193 seconds
  Time remaining  2 minutes and 58 seconds
  Simulation 94.6 percent complete. Average dt  0.192 seconds
  Time remaining  2 minutes and 54 seconds
  Simulation 94.7 percent complete. Average dt  0.188 seconds
  Time remaining  2 minutes and 50 seconds
  Simulation 94.9 percent complete. Average dt  0.187 seconds
  Time remaining  2 minutes and 45 seconds
  Simulation 95.0 percent complete. Average dt  0.186 seconds
  Time remaining  2 minutes and 42 seconds
  Simulation 95.1 percent complete. Average dt  0.182 seconds
  Time remaining  2 minutes and 40 seconds
  Simulation 95.3 percent complete. Average dt  0.181 seconds
  Time remaining  2 minutes and 31 seconds
  Simulation 95.4 percent complete. Average dt  0.180 seconds
  Time remaining  2 minutes and 28 seconds
  Simulation 95.6 percent complete. Average dt  0.177 seconds
  Time remaining  2 minutes and 25 seconds
  Simulation 95.7 percent complete. Average dt  0.176 seconds
  Time remaining  2 minutes and 21 seconds
  Simulation 95.8 percent complete. Average dt  0.174 seconds
  Time remaining  2 minutes and 14 seconds
  Simulation 96.0 percent complete. Average dt  0.172 seconds
  Time remaining  2 minutes and  8 seconds
  Simulation 96.1 percent complete. Average dt  0.174 seconds
  Time remaining  2 minutes and  3 seconds
  Simulation 96.3 percent complete. Average dt  0.174 seconds
  Time remaining  1 minutes and 58 seconds
  Simulation 96.4 percent complete. Average dt  0.172 seconds
  Time remaining  1 minutes and 54 seconds
  Simulation 96.6 percent complete. Average dt  0.174 seconds
  Time remaining  1 minutes and 49 seconds
  Simulation 96.7 percent complete. Average dt  0.174 seconds
  Time remaining  1 minutes and 44 seconds
  Simulation 96.9 percent complete. Average dt  0.172 seconds
  Time remaining  1 minutes and 40 seconds
  Simulation 97.0 percent complete. Average dt  0.174 seconds
  Time remaining  1 minutes and 35 seconds
  Simulation 97.2 percent complete. Average dt  0.174 seconds
  Time remaining  1 minutes and 30 seconds
  Simulation 97.3 percent complete. Average dt  0.172 seconds
  Time remaining  1 minutes and 26 seconds
  Simulation 97.4 percent complete. Average dt  0.174 seconds
  Time remaining  1 minutes and 21 seconds
  Simulation 97.6 percent complete. Average dt  0.176 seconds
  Time remaining  1 minutes and 16 seconds
  Simulation 97.7 percent complete. Average dt  0.176 seconds
  Time remaining  1 minutes and 11 seconds
  Simulation 97.9 percent complete. Average dt  0.177 seconds
  Time remaining  1 minutes and  6 seconds
  Simulation 98.0 percent complete. Average dt  0.179 seconds
  Time remaining  1 minutes and  1 seconds
  Simulation 98.2 percent complete. Average dt  0.179 seconds
  Time remaining 56 seconds
  Simulation 98.3 percent complete. Average dt  0.180 seconds
  Time remaining 51 seconds
  Simulation 98.5 percent complete. Average dt  0.182 seconds
  Time remaining 46 seconds
  Simulation 98.7 percent complete. Average dt  0.182 seconds
  Time remaining 42 seconds
  Simulation 98.8 percent complete. Average dt  0.184 seconds
  Time remaining 36 seconds
  Simulation 99.0 percent complete. Average dt  0.186 seconds
  Time remaining 31 seconds
  Simulation 99.1 percent complete. Average dt  0.188 seconds
  Time remaining 27 seconds
  Simulation 99.3 percent complete. Average dt  0.190 seconds
  Time remaining 22 seconds
  Simulation 99.4 percent complete. Average dt  0.192 seconds
  Time remaining 17 seconds
  Simulation 99.6 percent complete. Average dt  0.194 seconds
  Time remaining 12 seconds
  Simulation 99.8 percent complete. Average dt  0.197 seconds
  Time remaining  7 seconds
  Simulation 99.9 percent complete. Average dt  0.198 seconds
  Time remaining  2 seconds
   Duration   :   2921.8679999999999       seconds
   Timesteps  :     1244892
   Average dt :  0.20821083274693708       seconds
   Unit speed :   4.2830027925384363E-006  seconds/1
  End of program xbeach
