1

                    Execution started at 20170928.161837         



                    ---------------------------------------
                                     SWAN
                    SIMULATION OF WAVES IN NEAR SHORE AREAS
                             VERSION NUMBER 41.10               
                    ---------------------------------------


    
 PROJ 'gridInner' 'ca01'
    
 $
    
 SET level=1.00  NAUTICAL
    
 COORDINATES CARTESIAN
    
 $ ------------------------------------------------------------------------------
    
 $
    
 $ **** COMMANDS FOR MODEL DESCRIPTION ******************************************
    
 $ ------------------------------------------------------------------------------
    
 $ CGRID ->REG XPC YPC ALPC XLENC YLENC MXC MYC ->CIRC  MDC  FLOW FHIGH  MSC
    
 CGRID   412218.6250  4104046.2500 338 6295 6780 315 339  CIRCLE  72 0.0345 1.00  34
 Resolution in sigma-space: df/f =  0.1041
    
 $
    
 $ ------------------------------------------------------------------------------
    
 $
    
 $ **** COMMANDS FOR INPUT FIELDS ***********************************************
    
 $ ------------------------------------------------------------------------------
    
 $ INPGRID BOTTOM  REGULAR xpinp ypinp alpinp mxinp myinp dxinp dyinp
    
 INPGRID   BOTTOM  REGULAR 412000  4101500 0 980 918 10 10
    
 $
    
 $ READINP BOTTOM fac idla
    
 $
    
 $
    
 READINP BOTTOM -1 'topo_10m.dat' 1 0 FREE
    
 $
    
 $ ------------------------------------------------------------------------------
    
 $
    
 $ **** COMMANDS FOR INPUT BOUNDARY/INITIAL CONDITIONS **************************
    
 $ ------------------------------------------------------------------------------
    
 $ NO WIND
    
 BOUN NEST 'boundary.dat'
 Warning: no grid points on interval from  412223.28124104044.2500 to  412227.90624104042.5000
 Warning: no grid points on interval from  412227.90624104042.5000 to  412232.53124104040.5000
 Warning: no grid points on interval from  412237.18754104038.7500 to  412241.81254104036.7500
 Warning: no grid points on interval from  412241.81254104036.7500 to  412246.43754104035.0000
 Warning: no grid points on interval from  412246.43754104035.0000 to  412251.09384104033.0000
 Warning: no grid points on interval from  412255.71884104031.2500 to  412260.37504104029.2500
 Warning: no grid points on interval from  412260.37504104029.2500 to  412265.00004104027.5000
 Warning: no grid points on interval from  412265.00004104027.5000 to  412269.62504104025.5000
 Warning: no grid points on interval from  412274.28124104023.7500 to  412278.90624104021.7500
 Warning: no grid points on interval from  412278.90624104021.7500 to  412283.53124104020.0000
 Warning: no grid points on interval from  412283.53124104020.0000 to  412288.18754104018.0000
 Warning: no grid points on interval from  412292.81254104016.2500 to  412297.43754104014.2500
 Warning: no grid points on interval from  412297.43754104014.2500 to  412302.09384104012.5000
 Warning: no grid points on interval from  412302.09384104012.5000 to  412306.71884104010.5000
 Warning: no grid points on interval from  412311.34384104008.7500 to  412316.00004104006.7500
 Warning: no grid points on interval from  412316.00004104006.7500 to  412320.62504104005.0000
 Warning: no grid points on interval from  412320.62504104005.0000 to  412325.25004104003.0000
 Warning: no grid points on interval from  412329.90624104001.2500 to  412334.53124103999.2500
 Warning: no grid points on interval from  412334.53124103999.2500 to  412339.15624103997.5000
 Warning: no grid points on interval from  412339.15624103997.5000 to  412343.81254103995.5000
 Warning: no grid points on interval from  412348.43754103993.7500 to  412353.06254103991.7500
 Warning: no grid points on interval from  412353.06254103991.7500 to  412357.71884103990.0000
 Warning: no grid points on interval from  412357.71884103990.0000 to  412362.34384103988.0000
 Warning: no grid points on interval from  412367.00004103986.2500 to  412371.62504103984.2500
 Warning: no grid points on interval from  412371.62504103984.2500 to  412376.25004103982.5000
 Warning: no grid points on interval from  412376.25004103982.5000 to  412380.90624103980.5000
 Warning: no grid points on interval from  412385.53124103978.7500 to  412390.15624103976.7500
 Warning: no grid points on interval from  412390.15624103976.7500 to  412394.81254103975.0000
 Warning: no grid points on interval from  412394.81254103975.0000 to  412399.43754103973.0000
 Warning: no grid points on interval from  412404.06254103971.2500 to  412408.71884103969.2500
 Warning: no grid points on interval from  412408.71884103969.2500 to  412413.34384103967.5000
 Warning: no grid points on interval from  412413.34384103967.5000 to  412417.96884103965.5000
 Warning: no grid points on interval from  412422.62504103963.7500 to  412427.25004103961.7500
 Warning: no grid points on interval from  412427.25004103961.7500 to  412431.87504103960.0000
 Warning: no grid points on interval from  412431.87504103960.0000 to  412436.53124103958.0000
 Warning: no grid points on interval from  412441.15624103956.2500 to  412445.78124103954.2500
 Warning: no grid points on interval from  412445.78124103954.2500 to  412450.43754103952.5000
 Warning: no grid points on interval from  412450.43754103952.5000 to  412455.06254103950.5000
 Warning: no grid points on interval from  412459.71884103948.7500 to  412464.34384103946.7500
 Warning: no grid points on interval from  412464.34384103946.7500 to  412468.96884103945.0000
 Warning: no grid points on interval from  412468.96884103945.0000 to  412473.62504103943.0000
 Warning: no grid points on interval from  412478.25004103941.2500 to  412482.87504103939.2500
 Warning: no grid points on interval from  412482.87504103939.2500 to  412487.53124103937.5000
 Warning: no grid points on interval from  412487.53124103937.5000 to  412492.15624103935.5000
 Warning: no grid points on interval from  412496.78124103933.7500 to  412501.43754103931.7500
 Warning: no grid points on interval from  412501.43754103931.7500 to  412506.06254103930.0000
 Warning: no grid points on interval from  412506.06254103930.0000 to  412510.68754103928.0000
 Warning: no grid points on interval from  412515.34384103926.2500 to  412519.96884103924.5000
 Warning: no grid points on interval from  412519.96884103924.5000 to  412524.59384103922.5000
 Warning: no grid points on interval from  412524.59384103922.5000 to  412529.25004103920.7500
 Warning: no grid points on interval from  412533.87504103918.7500 to  412538.50004103917.0000
 Warning: no grid points on interval from  412538.50004103917.0000 to  412543.15624103915.0000
 Warning: no grid points on interval from  412543.15624103915.0000 to  412547.78124103913.2500
 Warning: no grid points on interval from  412552.43754103911.2500 to  412557.06254103909.5000
 Warning: no grid points on interval from  412557.06254103909.5000 to  412561.68754103907.5000
 Warning: no grid points on interval from  412561.68754103907.5000 to  412566.34384103905.7500
 Warning: no grid points on interval from  412570.96884103903.7500 to  412575.59384103902.0000
 Warning: no grid points on interval from  412575.59384103902.0000 to  412580.25004103900.0000
 Warning: no grid points on interval from  412580.25004103900.0000 to  412584.87504103898.2500
 Warning: no grid points on interval from  412589.50004103896.2500 to  412594.15624103894.5000
 Warning: no grid points on interval from  412594.15624103894.5000 to  412598.78124103892.5000
 Warning: no grid points on interval from  412598.78124103892.5000 to  412603.40624103890.7500
 Warning: no grid points on interval from  412608.06254103888.7500 to  412612.68754103887.0000
 Warning: no grid points on interval from  412612.68754103887.0000 to  412617.31254103885.0000
 Warning: no grid points on interval from  412617.31254103885.0000 to  412621.96884103883.2500
 Warning: no grid points on interval from  412626.59384103881.2500 to  412631.21884103879.5000
 Warning: no grid points on interval from  412631.21884103879.5000 to  412635.87504103877.5000
 Warning: no grid points on interval from  412635.87504103877.5000 to  412640.50004103875.7500
 Warning: no grid points on interval from  412645.12504103873.7500 to  412649.78124103872.0000
 Warning: no grid points on interval from  412649.78124103872.0000 to  412654.40624103870.0000
 Warning: no grid points on interval from  412654.40624103870.0000 to  412659.06254103868.2500
 Warning: no grid points on interval from  412663.68754103866.2500 to  412668.31254103864.5000
 Warning: no grid points on interval from  412668.31254103864.5000 to  412672.96884103862.5000
 Warning: no grid points on interval from  412672.96884103862.5000 to  412677.59384103860.7500
 Warning: no grid points on interval from  412682.21884103858.7500 to  412686.87504103857.0000
 Warning: no grid points on interval from  412686.87504103857.0000 to  412691.50004103855.0000
 Warning: no grid points on interval from  412691.50004103855.0000 to  412696.12504103853.2500
 Warning: no grid points on interval from  412700.78124103851.2500 to  412705.40624103849.5000
 Warning: no grid points on interval from  412705.40624103849.5000 to  412710.03124103847.5000
 Warning: no grid points on interval from  412710.03124103847.5000 to  412714.68754103845.7500
 Warning: no grid points on interval from  412719.31254103843.7500 to  412723.93754103842.0000
 Warning: no grid points on interval from  412723.93754103842.0000 to  412728.59384103840.0000
 Warning: no grid points on interval from  412728.59384103840.0000 to  412733.21884103838.2500
 Warning: no grid points on interval from  412737.84384103836.2500 to  412742.50004103834.5000
 Warning: no grid points on interval from  412742.50004103834.5000 to  412747.12504103832.5000
 Warning: no grid points on interval from  412747.12504103832.5000 to  412751.78124103830.7500
 Warning: no grid points on interval from  412756.40624103828.7500 to  412761.03124103827.0000
 Warning: no grid points on interval from  412761.03124103827.0000 to  412765.68754103825.0000
 Warning: no grid points on interval from  412765.68754103825.0000 to  412770.31254103823.2500
 Warning: no grid points on interval from  412774.93754103821.2500 to  412779.59384103819.5000
 Warning: no grid points on interval from  412779.59384103819.5000 to  412784.21884103817.5000
 Warning: no grid points on interval from  412784.21884103817.5000 to  412788.84384103815.7500
 Warning: no grid points on interval from  412793.50004103813.7500 to  412798.12504103812.0000
 Warning: no grid points on interval from  412798.12504103812.0000 to  412802.75004103810.0000
 Warning: no grid points on interval from  412802.75004103810.0000 to  412807.40624103808.2500
 Warning: no grid points on interval from  412812.03124103806.5000 to  412816.65624103804.5000
 Warning: no grid points on interval from  412816.65624103804.5000 to  412821.31254103802.7500
 Warning: no grid points on interval from  412821.31254103802.7500 to  412825.93754103800.7500
 Warning: no grid points on interval from  412830.56254103799.0000 to  412835.21884103797.0000
 Warning: no grid points on interval from  412835.21884103797.0000 to  412839.84384103795.2500
 Warning: no grid points on interval from  412839.84384103795.2500 to  412844.50004103793.2500
 Warning: no grid points on interval from  412849.12504103791.5000 to  412853.75004103789.5000
 Warning: no grid points on interval from  412853.75004103789.5000 to  412858.40624103787.7500
 Warning: no grid points on interval from  412858.40624103787.7500 to  412863.03124103785.7500
 Warning: no grid points on interval from  412867.65624103784.0000 to  412872.31254103782.0000
 Warning: no grid points on interval from  412872.31254103782.0000 to  412876.93754103780.2500
 Warning: no grid points on interval from  412876.93754103780.2500 to  412881.56254103778.2500
 Warning: no grid points on interval from  412886.21884103776.5000 to  412890.84384103774.5000
 Warning: no grid points on interval from  412890.84384103774.5000 to  412895.46884103772.7500
 Warning: no grid points on interval from  412895.46884103772.7500 to  412900.12504103770.7500
 Warning: no grid points on interval from  412904.75004103769.0000 to  412909.37504103767.0000
 Warning: no grid points on interval from  412909.37504103767.0000 to  412914.03124103765.2500
 Warning: no grid points on interval from  412914.03124103765.2500 to  412918.65624103763.2500
 Warning: no grid points on interval from  412923.28124103761.5000 to  412927.93754103759.5000
 Warning: no grid points on interval from  412927.93754103759.5000 to  412932.56254103757.7500
 Warning: no grid points on interval from  412932.56254103757.7500 to  412937.18754103755.7500
 Warning: no grid points on interval from  412941.84384103754.0000 to  412946.46884103752.0000
 Warning: no grid points on interval from  412946.46884103752.0000 to  412951.12504103750.2500
 Warning: no grid points on interval from  412951.12504103750.2500 to  412955.75004103748.2500
 Warning: no grid points on interval from  412960.37504103746.5000 to  412965.03124103744.5000
 Warning: no grid points on interval from  412965.03124103744.5000 to  412969.65624103742.7500
 Warning: no grid points on interval from  412969.65624103742.7500 to  412974.28124103740.7500
 Warning: no grid points on interval from  412978.93754103739.0000 to  412983.56254103737.0000
 Warning: no grid points on interval from  412983.56254103737.0000 to  412988.18754103735.2500
 Warning: no grid points on interval from  412988.18754103735.2500 to  412992.84384103733.2500
 Warning: no grid points on interval from  412997.46884103731.5000 to  413002.09384103729.5000
 Warning: no grid points on interval from  413002.09384103729.5000 to  413006.75004103727.7500
 Warning: no grid points on interval from  413006.75004103727.7500 to  413011.37504103725.7500
 Warning: no grid points on interval from  413016.00004103724.0000 to  413020.65624103722.0000
 Warning: no grid points on interval from  413020.65624103722.0000 to  413025.28124103720.2500
 Warning: no grid points on interval from  413025.28124103720.2500 to  413029.93754103718.2500
 Warning: no grid points on interval from  413034.56254103716.5000 to  413039.18754103714.5000
 Warning: no grid points on interval from  413039.18754103714.5000 to  413043.84384103712.7500
 Warning: no grid points on interval from  413043.84384103712.7500 to  413048.46884103710.7500
 Warning: no grid points on interval from  413053.09384103709.0000 to  413057.75004103707.0000
 Warning: no grid points on interval from  413057.75004103707.0000 to  413062.37504103705.2500
 Warning: no grid points on interval from  413062.37504103705.2500 to  413067.00004103703.2500
 Warning: no grid points on interval from  413071.65624103701.5000 to  413076.28124103699.5000
 Warning: no grid points on interval from  413076.28124103699.5000 to  413080.90624103697.7500
 Warning: no grid points on interval from  413080.90624103697.7500 to  413085.56254103695.7500
 Warning: no grid points on interval from  413090.18754103694.0000 to  413094.81254103692.0000
 Warning: no grid points on interval from  413094.81254103692.0000 to  413099.46884103690.2500
 Warning: no grid points on interval from  413099.46884103690.2500 to  413104.09384103688.5000
 Warning: no grid points on interval from  413108.71884103686.5000 to  413113.37504103684.7500
 Warning: no grid points on interval from  413113.37504103684.7500 to  413118.00004103682.7500
 Warning: no grid points on interval from  413118.00004103682.7500 to  413122.62504103681.0000
 Warning: no grid points on interval from  413127.28124103679.0000 to  413131.90624103677.2500
 Warning: no grid points on interval from  413131.90624103677.2500 to  413136.56254103675.2500
 Warning: no grid points on interval from  413136.56254103675.2500 to  413141.18754103673.5000
 Warning: no grid points on interval from  413145.81254103671.5000 to  413150.46884103669.7500
 Warning: no grid points on interval from  413150.46884103669.7500 to  413155.09384103667.7500
 Warning: no grid points on interval from  413155.09384103667.7500 to  413159.71884103666.0000
 Warning: no grid points on interval from  413164.37504103664.0000 to  413169.00004103662.2500
 Warning: no grid points on interval from  413169.00004103662.2500 to  413173.62504103660.2500
 Warning: no grid points on interval from  413173.62504103660.2500 to  413178.28124103658.5000
 Warning: no grid points on interval from  413182.90624103656.5000 to  413187.53124103654.7500
 Warning: no grid points on interval from  413187.53124103654.7500 to  413192.18754103652.7500
 Warning: no grid points on interval from  413192.18754103652.7500 to  413196.81254103651.0000
 Warning: no grid points on interval from  413201.43754103649.0000 to  413206.09384103647.2500
 Warning: no grid points on interval from  413206.09384103647.2500 to  413210.71884103645.2500
 Warning: no grid points on interval from  413210.71884103645.2500 to  413215.37504103643.5000
 Warning: no grid points on interval from  413220.00004103641.5000 to  413224.62504103639.7500
 Warning: no grid points on interval from  413224.62504103639.7500 to  413229.25004103637.7500
 Warning: no grid points on interval from  413229.25004103637.7500 to  413233.90624103636.0000
 Warning: no grid points on interval from  413238.53124103634.0000 to  413243.18754103632.2500
 Warning: no grid points on interval from  413243.18754103632.2500 to  413247.81254103630.2500
 Warning: no grid points on interval from  413247.81254103630.2500 to  413252.43754103628.5000
 Warning: no grid points on interval from  413257.09384103626.5000 to  413261.71884103624.7500
 Warning: no grid points on interval from  413261.71884103624.7500 to  413266.34384103622.7500
 Warning: no grid points on interval from  413266.34384103622.7500 to  413271.00004103621.0000
 Warning: no grid points on interval from  413275.62504103619.0000 to  413280.25004103617.2500
 Warning: no grid points on interval from  413280.25004103617.2500 to  413284.90624103615.2500
 Warning: no grid points on interval from  413284.90624103615.2500 to  413289.53124103613.5000
 Warning: no grid points on interval from  413294.15624103611.5000 to  413298.81254103609.7500
 Warning: no grid points on interval from  413298.81254103609.7500 to  413303.43754103607.7500
 Warning: no grid points on interval from  413303.43754103607.7500 to  413308.06254103606.0000
 Warning: no grid points on interval from  413312.71884103604.0000 to  413317.34384103602.2500
 Warning: no grid points on interval from  413317.34384103602.2500 to  413322.00004103600.2500
 Warning: no grid points on interval from  413322.00004103600.2500 to  413326.62504103598.5000
 Warning: no grid points on interval from  413331.25004103596.5000 to  413335.90624103594.7500
 Warning: no grid points on interval from  413335.90624103594.7500 to  413340.53124103592.7500
 Warning: no grid points on interval from  413340.53124103592.7500 to  413345.15624103591.0000
 Warning: no grid points on interval from  413349.81254103589.0000 to  413354.43754103587.2500
 Warning: no grid points on interval from  413354.43754103587.2500 to  413359.06254103585.2500
 Warning: no grid points on interval from  413359.06254103585.2500 to  413363.71884103583.5000
 Warning: no grid points on interval from  413368.34384103581.5000 to  413372.96884103579.7500
 Warning: no grid points on interval from  413372.96884103579.7500 to  413377.62504103577.7500
 Warning: no grid points on interval from  413377.62504103577.7500 to  413382.25004103576.0000
 Warning: no grid points on interval from  413386.87504103574.0000 to  413391.53124103572.2500
 Warning: no grid points on interval from  413391.53124103572.2500 to  413396.15624103570.5000
 Warning: no grid points on interval from  413396.15624103570.5000 to  413400.78124103568.5000
 Warning: no grid points on interval from  413405.43754103566.7500 to  413410.06254103564.7500
 Warning: no grid points on interval from  413410.06254103564.7500 to  413414.68754103563.0000
 Warning: no grid points on interval from  413414.68754103563.0000 to  413419.34384103561.0000
 Warning: no grid points on interval from  413423.96884103559.2500 to  413428.62504103557.2500
 Warning: no grid points on interval from  413428.62504103557.2500 to  413433.25004103555.5000
 Warning: no grid points on interval from  413433.25004103555.5000 to  413437.87504103553.5000
 Warning: no grid points on interval from  413442.53124103551.7500 to  413447.15624103549.7500
 Warning: no grid points on interval from  413447.15624103549.7500 to  413451.78124103548.0000
 Warning: no grid points on interval from  413451.78124103548.0000 to  413456.43754103546.0000
 Warning: no grid points on interval from  413461.06254103544.2500 to  413465.68754103542.2500
 Warning: no grid points on interval from  413465.68754103542.2500 to  413470.34384103540.5000
 Warning: no grid points on interval from  413470.34384103540.5000 to  413474.96884103538.5000
 Warning: no grid points on interval from  413479.59384103536.7500 to  413484.25004103534.7500
 Warning: no grid points on interval from  413484.25004103534.7500 to  413488.87504103533.0000
 Warning: no grid points on interval from  413488.87504103533.0000 to  413493.50004103531.0000
 Warning: no grid points on interval from  413498.15624103529.2500 to  413502.78124103527.2500
 Warning: no grid points on interval from  413502.78124103527.2500 to  413507.43754103525.5000
 Warning: no grid points on interval from  413507.43754103525.5000 to  413512.06254103523.5000
 Warning: no grid points on interval from  413516.68754103521.7500 to  413521.34384103519.7500
 Warning: no grid points on interval from  413521.34384103519.7500 to  413525.96884103518.0000
 Warning: no grid points on interval from  413525.96884103518.0000 to  413530.59384103516.0000
 Warning: no grid points on interval from  413535.25004103514.2500 to  413539.87504103512.2500
 Warning: no grid points on interval from  413539.87504103512.2500 to  413544.50004103510.5000
 Warning: no grid points on interval from  413544.50004103510.5000 to  413549.15624103508.5000
 Warning: no grid points on interval from  413553.78124103506.7500 to  413558.40624103504.7500
 Warning: no grid points on interval from  413558.40624103504.7500 to  413563.06254103503.0000
 Warning: no grid points on interval from  413563.06254103503.0000 to  413567.68754103501.0000
 Warning: no grid points on interval from  413572.31254103499.2500 to  413576.96884103497.2500
 Warning: no grid points on interval from  413576.96884103497.2500 to  413581.59384103495.5000
 Warning: no grid points on interval from  413581.59384103495.5000 to  413586.21884103493.5000
 Warning: no grid points on interval from  413590.87504103491.7500 to  413595.50004103489.7500
 Warning: no grid points on interval from  413595.50004103489.7500 to  413600.12504103488.0000
 Warning: no grid points on interval from  413600.12504103488.0000 to  413604.78124103486.0000
 Warning: no grid points on interval from  413609.40624103484.2500 to  413614.06254103482.2500
 Warning: no grid points on interval from  413614.06254103482.2500 to  413618.68754103480.5000
 Warning: no grid points on interval from  413618.68754103480.5000 to  413623.31254103478.5000
 Warning: no grid points on interval from  413627.96884103476.7500 to  413632.59384103474.7500
 Warning: no grid points on interval from  413632.59384103474.7500 to  413637.21884103473.0000
 Warning: no grid points on interval from  413637.21884103473.0000 to  413641.87504103471.0000
 Warning: no grid points on interval from  413646.50004103469.2500 to  413651.12504103467.2500
 Warning: no grid points on interval from  413651.12504103467.2500 to  413655.78124103465.5000
 Warning: no grid points on interval from  413655.78124103465.5000 to  413660.40624103463.5000
 Warning: no grid points on interval from  413665.03124103461.7500 to  413669.68754103459.7500
 Warning: no grid points on interval from  413669.68754103459.7500 to  413674.31254103458.0000
 Warning: no grid points on interval from  413674.31254103458.0000 to  413678.93754103456.0000
 Warning: no grid points on interval from  413683.59384103454.2500 to  413688.21884103452.5000
 Warning: no grid points on interval from  413688.21884103452.5000 to  413692.84384103450.5000
 Warning: no grid points on interval from  413692.84384103450.5000 to  413697.50004103448.7500
 Warning: no grid points on interval from  413702.12504103446.7500 to  413706.75004103445.0000
 Warning: no grid points on interval from  413706.75004103445.0000 to  413711.40624103443.0000
 Warning: no grid points on interval from  413711.40624103443.0000 to  413716.03124103441.2500
 Warning: no grid points on interval from  413720.68754103439.2500 to  413725.31254103437.5000
 Warning: no grid points on interval from  413725.31254103437.5000 to  413729.93754103435.5000
 Warning: no grid points on interval from  413729.93754103435.5000 to  413734.59384103433.7500
 Warning: no grid points on interval from  413739.21884103431.7500 to  413743.84384103430.0000
 Warning: no grid points on interval from  413743.84384103430.0000 to  413748.50004103428.0000
 Warning: no grid points on interval from  413748.50004103428.0000 to  413753.12504103426.2500
 Warning: no grid points on interval from  413757.75004103424.2500 to  413762.40624103422.5000
 Warning: no grid points on interval from  413762.40624103422.5000 to  413767.03124103420.5000
 Warning: no grid points on interval from  413767.03124103420.5000 to  413771.65624103418.7500
 Warning: no grid points on interval from  413776.31254103416.7500 to  413780.93754103415.0000
 Warning: no grid points on interval from  413780.93754103415.0000 to  413785.56254103413.0000
 Warning: no grid points on interval from  413785.56254103413.0000 to  413790.21884103411.2500
 Warning: no grid points on interval from  413794.84384103409.2500 to  413799.50004103407.5000
 Warning: no grid points on interval from  413799.50004103407.5000 to  413804.12504103405.5000
 Warning: no grid points on interval from  413804.12504103405.5000 to  413808.75004103403.7500
 Warning: no grid points on interval from  413813.40624103401.7500 to  413818.03124103400.0000
 Warning: no grid points on interval from  413818.03124103400.0000 to  413822.65624103398.0000
 Warning: no grid points on interval from  413822.65624103398.0000 to  413827.31254103396.2500
 Warning: no grid points on interval from  413831.93754103394.2500 to  413836.56254103392.5000
 Warning: no grid points on interval from  413836.56254103392.5000 to  413841.21884103390.5000
 Warning: no grid points on interval from  413841.21884103390.5000 to  413845.84384103388.7500
 Warning: no grid points on interval from  413850.46884103386.7500 to  413855.12504103385.0000
 Warning: no grid points on interval from  413855.12504103385.0000 to  413859.75004103383.0000
 Warning: no grid points on interval from  413859.75004103383.0000 to  413864.37504103381.2500
 Warning: no grid points on interval from  413869.03124103379.2500 to  413873.65624103377.5000
 Warning: no grid points on interval from  413873.65624103377.5000 to  413878.28124103375.5000
 Warning: no grid points on interval from  413878.28124103375.5000 to  413882.93754103373.7500
 Warning: no grid points on interval from  413887.56254103371.7500 to  413892.18754103370.0000
 Warning: no grid points on interval from  413892.18754103370.0000 to  413896.84384103368.0000
 Warning: no grid points on interval from  413896.84384103368.0000 to  413901.46884103366.2500
 Warning: no grid points on interval from  413906.12504103364.2500 to  413910.75004103362.5000
 Warning: no grid points on interval from  413910.75004103362.5000 to  413915.37504103360.5000
 Warning: no grid points on interval from  413915.37504103360.5000 to  413920.03124103358.7500
 Warning: no grid points on interval from  413924.65624103356.7500 to  413929.28124103355.0000
 Warning: no grid points on interval from  413929.28124103355.0000 to  413933.93754103353.0000
 Warning: no grid points on interval from  413933.93754103353.0000 to  413938.56254103351.2500
 Warning: no grid points on interval from  413943.18754103349.2500 to  413947.84384103347.5000
 Warning: no grid points on interval from  413947.84384103347.5000 to  413952.46884103345.5000
 Warning: no grid points on interval from  413952.46884103345.5000 to  413957.09384103343.7500
 Warning: no grid points on interval from  413961.75004103341.7500 to  413966.37504103340.0000
 Warning: no grid points on interval from  413966.37504103340.0000 to  413971.00004103338.0000
 Warning: no grid points on interval from  413971.00004103338.0000 to  413975.65624103336.2500
 Warning: no grid points on interval from  413980.28124103334.5000 to  413984.93754103332.5000
 Warning: no grid points on interval from  413984.93754103332.5000 to  413989.56254103330.7500
 Warning: no grid points on interval from  413989.56254103330.7500 to  413994.18754103328.7500
 Warning: no grid points on interval from  413998.81254103327.0000 to  414003.46884103325.0000
 Warning: no grid points on interval from  414003.46884103325.0000 to  414008.09384103323.2500
 Warning: no grid points on interval from  414008.09384103323.2500 to  414012.75004103321.2500
 Warning: no grid points on interval from  414017.37504103319.5000 to  414022.00004103317.5000
 Warning: no grid points on interval from  414022.00004103317.5000 to  414026.65624103315.7500
 Warning: no grid points on interval from  414026.65624103315.7500 to  414031.28124103313.7500
 Warning: no grid points on interval from  414035.90624103312.0000 to  414040.56254103310.0000
 Warning: no grid points on interval from  414040.56254103310.0000 to  414045.18754103308.2500
 Warning: no grid points on interval from  414045.18754103308.2500 to  414049.81254103306.2500
 Warning: no grid points on interval from  414054.46884103304.5000 to  414059.09384103302.5000
 Warning: no grid points on interval from  414059.09384103302.5000 to  414063.71884103300.7500
 Warning: no grid points on interval from  414063.71884103300.7500 to  414068.37504103298.7500
 Warning: no grid points on interval from  414073.00004103297.0000 to  414077.62504103295.0000
 Warning: no grid points on interval from  414077.62504103295.0000 to  414082.28124103293.2500
 Warning: no grid points on interval from  414082.28124103293.2500 to  414086.90624103291.2500
 Warning: no grid points on interval from  414091.56254103289.5000 to  414096.18754103287.5000
 Warning: no grid points on interval from  414096.18754103287.5000 to  414100.81254103285.7500
 Warning: no grid points on interval from  414100.81254103285.7500 to  414105.46884103283.7500
 Warning: no grid points on interval from  414110.09384103282.0000 to  414114.71884103280.0000
 Warning: no grid points on interval from  414114.71884103280.0000 to  414119.37504103278.2500
 Warning: no grid points on interval from  414119.37504103278.2500 to  414124.00004103276.2500
 Warning: no grid points on interval from  414128.62504103274.5000 to  414133.28124103272.5000
 Warning: no grid points on interval from  414133.28124103272.5000 to  414137.90624103270.7500
 Warning: no grid points on interval from  414137.90624103270.7500 to  414142.53124103268.7500
 Warning: no grid points on interval from  414147.18754103267.0000 to  414151.81254103265.0000
 Warning: no grid points on interval from  414151.81254103265.0000 to  414156.43754103263.2500
 Warning: no grid points on interval from  414156.43754103263.2500 to  414161.09384103261.2500
 Warning: no grid points on interval from  414165.71884103259.5000 to  414170.34384103257.5000
 Warning: no grid points on interval from  414170.34384103257.5000 to  414175.00004103255.7500
 Warning: no grid points on interval from  414175.00004103255.7500 to  414179.62504103253.7500
 Warning: no grid points on interval from  414184.25004103252.0000 to  414188.90624103250.0000
 Warning: no grid points on interval from  414188.90624103250.0000 to  414193.53124103248.2500
 Warning: no grid points on interval from  414193.53124103248.2500 to  414198.18754103246.2500
 Warning: no grid points on interval from  414202.81254103244.5000 to  414207.43754103242.5000
 Warning: no grid points on interval from  414207.43754103242.5000 to  414212.09384103240.7500
 Warning: no grid points on interval from  414212.09384103240.7500 to  414216.71884103238.7500
 Warning: no grid points on interval from  414221.34384103237.0000 to  414226.00004103235.0000
 Warning: no grid points on interval from  414226.00004103235.0000 to  414230.62504103233.2500
 Warning: no grid points on interval from  414230.62504103233.2500 to  414235.25004103231.2500
 Warning: no grid points on interval from  414239.90624103229.5000 to  414244.53124103227.5000
 Warning: no grid points on interval from  414244.53124103227.5000 to  414249.15624103225.7500
 Warning: no grid points on interval from  414249.15624103225.7500 to  414253.81254103223.7500
 Warning: no grid points on interval from  414258.43754103222.0000 to  414263.06254103220.0000
 Warning: no grid points on interval from  414263.06254103220.0000 to  414267.71884103218.2500
 Warning: no grid points on interval from  414267.71884103218.2500 to  414272.34384103216.2500
 Warning: no grid points on interval from  414277.00004103214.5000 to  414281.62504103212.7500
 Warning: no grid points on interval from  414281.62504103212.7500 to  414286.25004103210.7500
 Warning: no grid points on interval from  414286.25004103210.7500 to  414290.87504103209.0000
 Warning: no grid points on interval from  414295.53124103207.0000 to  414300.15624103205.2500
 Warning: no grid points on interval from  414300.15624103205.2500 to  414304.81254103203.2500
 Warning: no grid points on interval from  414304.81254103203.2500 to  414309.43754103201.5000
 Warning: no grid points on interval from  414314.06254103199.5000 to  414318.71884103197.7500
 Warning: no grid points on interval from  414318.71884103197.7500 to  414323.34384103195.7500
 Warning: no grid points on interval from  414323.34384103195.7500 to  414327.96884103194.0000
 Warning: no grid points on interval from  414332.62504103192.0000 to  414337.25004103190.2500
 Warning: no grid points on interval from  414337.25004103190.2500 to  414341.87504103188.2500
 Warning: no grid points on interval from  414341.87504103188.2500 to  414346.53124103186.5000
 Warning: no grid points on interval from  414351.15624103184.5000 to  414355.78124103182.7500
 Warning: no grid points on interval from  414355.78124103182.7500 to  414360.43754103180.7500
 Warning: no grid points on interval from  414360.43754103180.7500 to  414365.06254103179.0000
 Warning: no grid points on interval from  414369.68754103177.0000 to  414374.34384103175.2500
 Warning: no grid points on interval from  414374.34384103175.2500 to  414378.96884103173.2500
 Warning: no grid points on interval from  414378.96884103173.2500 to  414383.62504103171.5000
 Warning: no grid points on interval from  414388.25004103169.5000 to  414392.87504103167.7500
 Warning: no grid points on interval from  414392.87504103167.7500 to  414397.53124103165.7500
 Warning: no grid points on interval from  414397.53124103165.7500 to  414402.15624103164.0000
 Warning: no grid points on interval from  414406.78124103162.0000 to  414411.43754103160.2500
 Warning: no grid points on interval from  414411.43754103160.2500 to  414416.06254103158.2500
 Warning: no grid points on interval from  414416.06254103158.2500 to  414420.68754103156.5000
 Warning: no grid points on interval from  414425.34384103154.5000 to  414429.96884103152.7500
 Warning: no grid points on interval from  414429.96884103152.7500 to  414434.59384103150.7500
 Warning: no grid points on interval from  414434.59384103150.7500 to  414439.25004103149.0000
 Warning: no grid points on interval from  414443.87504103147.0000 to  414448.50004103145.2500
 Warning: no grid points on interval from  414448.50004103145.2500 to  414453.15624103143.2500
 Warning: no grid points on interval from  414453.15624103143.2500 to  414457.78124103141.5000
 Warning: no grid points on interval from  414462.40624103139.5000 to  414467.06254103137.7500
 Warning: no grid points on interval from  414467.06254103137.7500 to  414471.68754103135.7500
 Warning: no grid points on interval from  414471.68754103135.7500 to  414476.31254103134.0000
 Warning: no grid points on interval from  414480.96884103132.0000 to  414485.59384103130.2500
 Warning: no grid points on interval from  414485.59384103130.2500 to  414490.25004103128.2500
 Warning: no grid points on interval from  414490.25004103128.2500 to  414494.87504103126.5000
 Warning: no grid points on interval from  414499.50004103124.5000 to  414504.15624103122.7500
 Warning: no grid points on interval from  414504.15624103122.7500 to  414508.78124103120.7500
 Warning: no grid points on interval from  414508.78124103120.7500 to  414513.40624103119.0000
 Warning: no grid points on interval from  414518.06254103117.0000 to  414522.68754103115.2500
 Warning: no grid points on interval from  414522.68754103115.2500 to  414527.31254103113.2500
 Warning: no grid points on interval from  414527.31254103113.2500 to  414531.96884103111.5000
 Warning: no grid points on interval from  414536.59384103109.5000 to  414541.21884103107.7500
 Warning: no grid points on interval from  414541.21884103107.7500 to  414545.87504103105.7500
 Warning: no grid points on interval from  414545.87504103105.7500 to  414550.50004103104.0000
 Warning: no grid points on interval from  414555.12504103102.0000 to  414559.78124103100.2500
 Warning: no grid points on interval from  414559.78124103100.2500 to  414564.40624103098.2500
 Warning: no grid points on interval from  414564.40624103098.2500 to  414569.06254103096.5000
 Warning: no grid points on interval from  414573.68754103094.7500 to  414578.31254103092.7500
 Warning: no grid points on interval from  414578.31254103092.7500 to  414582.96884103091.0000
 Warning: no grid points on interval from  414582.96884103091.0000 to  414587.59384103089.0000
 Warning: no grid points on interval from  414592.21884103087.2500 to  414596.87504103085.2500
 Warning: no grid points on interval from  414596.87504103085.2500 to  414601.50004103083.5000
 Warning: no grid points on interval from  414601.50004103083.5000 to  414606.12504103081.5000
 Warning: no grid points on interval from  414610.78124103079.7500 to  414615.40624103077.7500
 Warning: no grid points on interval from  414615.40624103077.7500 to  414620.03124103076.0000
 Warning: no grid points on interval from  414620.03124103076.0000 to  414624.68754103074.0000
 Warning: no grid points on interval from  414629.31254103072.2500 to  414633.93754103070.2500
 Warning: no grid points on interval from  414633.93754103070.2500 to  414638.59384103068.5000
 Warning: no grid points on interval from  414638.59384103068.5000 to  414643.21884103066.5000
 Warning: no grid points on interval from  414647.84384103064.7500 to  414652.50004103062.7500
 Warning: no grid points on interval from  414652.50004103062.7500 to  414657.12504103061.0000
 Warning: no grid points on interval from  414657.12504103061.0000 to  414661.75004103059.0000
 Warning: no grid points on interval from  414666.40624103057.2500 to  414671.03124103055.2500
 Warning: no grid points on interval from  414671.03124103055.2500 to  414675.68754103053.5000
 Warning: no grid points on interval from  414675.68754103053.5000 to  414680.31254103051.5000
 Warning: no grid points on interval from  414684.93754103049.7500 to  414689.59384103047.7500
 Warning: no grid points on interval from  414689.59384103047.7500 to  414694.21884103046.0000
 Warning: no grid points on interval from  414694.21884103046.0000 to  414698.84384103044.0000
 Warning: no grid points on interval from  414703.50004103042.2500 to  414708.12504103040.2500
 Warning: no grid points on interval from  414708.12504103040.2500 to  414712.75004103038.5000
 Warning: no grid points on interval from  414712.75004103038.5000 to  414717.40624103036.5000
 Warning: no grid points on interval from  414722.03124103034.7500 to  414726.65624103032.7500
 Warning: no grid points on interval from  414726.65624103032.7500 to  414731.31254103031.0000
 Warning: no grid points on interval from  414731.31254103031.0000 to  414735.93754103029.0000
 Warning: no grid points on interval from  414740.56254103027.2500 to  414745.21884103025.2500
 Warning: no grid points on interval from  414745.21884103025.2500 to  414749.84384103023.5000
 Warning: no grid points on interval from  414749.84384103023.5000 to  414754.50004103021.5000
 Warning: no grid points on interval from  414759.12504103019.7500 to  414763.75004103017.7500
 Warning: no grid points on interval from  414763.75004103017.7500 to  414768.37504103016.0000
 Warning: no grid points on interval from  414768.37504103016.0000 to  414773.03124103014.0000
 Warning: no grid points on interval from  414777.65624103012.2500 to  414782.31254103010.2500
 Warning: no grid points on interval from  414782.31254103010.2500 to  414786.93754103008.5000
 Warning: no grid points on interval from  414786.93754103008.5000 to  414791.56254103006.5000
 Warning: no grid points on interval from  414796.21884103004.7500 to  414800.84384103002.7500
 Warning: no grid points on interval from  414800.84384103002.7500 to  414805.46884103001.0000
 Warning: no grid points on interval from  414805.46884103001.0000 to  414810.12504102999.0000
 Warning: no grid points on interval from  414814.75004102997.2500 to  414819.37504102995.2500
 Warning: no grid points on interval from  414819.37504102995.2500 to  414824.03124102993.5000
 Warning: no grid points on interval from  414824.03124102993.5000 to  414828.65624102991.5000
 Warning: no grid points on interval from  414833.28124102989.7500 to  414837.93754102987.7500
 Warning: no grid points on interval from  414837.93754102987.7500 to  414842.56254102986.0000
 Warning: no grid points on interval from  414842.56254102986.0000 to  414847.18754102984.0000
 Warning: no grid points on interval from  414851.84384102982.2500 to  414856.46884102980.2500
 Warning: no grid points on interval from  414856.46884102980.2500 to  414861.12504102978.5000
 Warning: no grid points on interval from  414861.12504102978.5000 to  414865.75004102976.5000
 Warning: no grid points on interval from  414870.37504102974.7500 to  414875.03124102973.0000
 Warning: no grid points on interval from  414875.03124102973.0000 to  414879.65624102971.0000
 Warning: no grid points on interval from  414879.65624102971.0000 to  414884.28124102969.2500
 Warning: no grid points on interval from  414888.93754102967.2500 to  414893.56254102965.5000
 Warning: no grid points on interval from  414893.56254102965.5000 to  414898.18754102963.5000
 Warning: no grid points on interval from  414898.18754102963.5000 to  414902.84384102961.7500
 Warning: no grid points on interval from  414907.46884102959.7500 to  414912.09384102958.0000
 Warning: no grid points on interval from  414912.09384102958.0000 to  414916.75004102956.0000
 Warning: no grid points on interval from  414916.75004102956.0000 to  414921.37504102954.2500
 Warning: no grid points on interval from  414926.00004102952.2500 to  414930.65624102950.5000
 Warning: no grid points on interval from  414930.65624102950.5000 to  414935.28124102948.5000
 Warning: no grid points on interval from  414935.28124102948.5000 to  414939.90624102946.7500
 Warning: no grid points on interval from  414944.56254102944.7500 to  414949.18754102943.0000
 Warning: no grid points on interval from  414949.18754102943.0000 to  414953.81254102941.0000
 Warning: no grid points on interval from  414953.81254102941.0000 to  414958.46884102939.2500
 Warning: no grid points on interval from  414963.09384102937.2500 to  414967.75004102935.5000
 Warning: no grid points on interval from  414967.75004102935.5000 to  414972.37504102933.5000
 Warning: no grid points on interval from  414972.37504102933.5000 to  414977.00004102931.7500
 Warning: no grid points on interval from  414981.65624102929.7500 to  414986.28124102928.0000
 Warning: no grid points on interval from  414986.28124102928.0000 to  414990.90624102926.0000
 Warning: no grid points on interval from  414990.90624102926.0000 to  414995.56254102924.2500
 Warning: no grid points on interval from  415000.18754102922.2500 to  415004.81254102920.5000
 Warning: no grid points on interval from  415004.81254102920.5000 to  415009.46884102918.5000
 Warning: no grid points on interval from  415009.46884102918.5000 to  415014.09384102916.7500
 Warning: no grid points on interval from  415018.71884102914.7500 to  415023.37504102913.0000
 Warning: no grid points on interval from  415023.37504102913.0000 to  415028.00004102911.0000
 Warning: no grid points on interval from  415028.00004102911.0000 to  415032.62504102909.2500
 Warning: no grid points on interval from  415037.28124102907.2500 to  415041.90624102905.5000
 Warning: no grid points on interval from  415041.90624102905.5000 to  415046.56254102903.5000
 Warning: no grid points on interval from  415046.56254102903.5000 to  415051.18754102901.7500
 Warning: no grid points on interval from  415055.81254102899.7500 to  415060.43754102898.0000
 Warning: no grid points on interval from  415060.43754102898.0000 to  415065.09384102896.0000
 Warning: no grid points on interval from  415065.09384102896.0000 to  415069.71884102894.2500
 Warning: no grid points on interval from  415074.37504102892.2500 to  415079.00004102890.5000
 Warning: no grid points on interval from  415079.00004102890.5000 to  415083.62504102888.5000
 Warning: no grid points on interval from  415083.62504102888.5000 to  415088.28124102886.7500
 Warning: no grid points on interval from  415092.90624102884.7500 to  415097.53124102883.0000
 Warning: no grid points on interval from  415097.53124102883.0000 to  415102.18754102881.0000
 Warning: no grid points on interval from  415102.18754102881.0000 to  415106.81254102879.2500
 Warning: no grid points on interval from  415111.43754102877.2500 to  415116.09384102875.5000
 Warning: no grid points on interval from  415116.09384102875.5000 to  415120.71884102873.5000
 Warning: no grid points on interval from  415120.71884102873.5000 to  415125.34384102871.7500
 Warning: no grid points on interval from  415130.00004102869.7500 to  415134.62504102868.0000
 Warning: no grid points on interval from  415134.62504102868.0000 to  415139.25004102866.0000
 Warning: no grid points on interval from  415139.25004102866.0000 to  415143.90624102864.2500
 Warning: no grid points on interval from  415148.53124102862.2500 to  415153.18754102860.5000
 Warning: no grid points on interval from  415153.18754102860.5000 to  415157.81254102858.5000
 Warning: no grid points on interval from  415157.81254102858.5000 to  415162.43754102856.7500
 Warning: no grid points on interval from  415167.09384102855.0000 to  415171.71884102853.0000
 Warning: no grid points on interval from  415171.71884102853.0000 to  415176.34384102851.2500
 Warning: no grid points on interval from  415176.34384102851.2500 to  415181.00004102849.2500
 Warning: no grid points on interval from  415185.62504102847.5000 to  415190.25004102845.5000
 Warning: no grid points on interval from  415190.25004102845.5000 to  415194.90624102843.7500
 Warning: no grid points on interval from  415194.90624102843.7500 to  415199.53124102841.7500
 Warning: no grid points on interval from  415204.15624102840.0000 to  415208.81254102838.0000
 Warning: no grid points on interval from  415208.81254102838.0000 to  415213.43754102836.2500
 Warning: no grid points on interval from  415213.43754102836.2500 to  415218.06254102834.2500
 Warning: no grid points on interval from  415222.71884102832.5000 to  415227.34384102830.5000
 Warning: no grid points on interval from  415227.34384102830.5000 to  415231.96884102828.7500
 Warning: no grid points on interval from  415231.96884102828.7500 to  415236.62504102826.7500
 Warning: no grid points on interval from  415241.25004102825.0000 to  415245.87504102823.0000
 Warning: no grid points on interval from  415245.87504102823.0000 to  415250.53124102821.2500
 Warning: no grid points on interval from  415250.53124102821.2500 to  415255.15624102819.2500
 Warning: no grid points on interval from  415259.81254102817.5000 to  415264.43754102815.5000
 Warning: no grid points on interval from  415264.43754102815.5000 to  415269.06254102813.7500
 Warning: no grid points on interval from  415269.06254102813.7500 to  415273.71884102811.7500
 Warning: no grid points on interval from  415278.34384102810.0000 to  415282.96884102808.0000
 Warning: no grid points on interval from  415282.96884102808.0000 to  415287.62504102806.2500
 Warning: no grid points on interval from  415287.62504102806.2500 to  415292.25004102804.2500
 Warning: no grid points on interval from  415296.87504102802.5000 to  415301.53124102800.5000
 Warning: no grid points on interval from  415301.53124102800.5000 to  415306.15624102798.7500
 Warning: no grid points on interval from  415306.15624102798.7500 to  415310.78124102796.7500
 Warning: no grid points on interval from  415315.43754102795.0000 to  415320.06254102793.0000
 Warning: no grid points on interval from  415320.06254102793.0000 to  415324.68754102791.2500
 Warning: no grid points on interval from  415324.68754102791.2500 to  415329.34384102789.2500
 Warning: no grid points on interval from  415333.96884102787.5000 to  415338.62504102785.5000
 Warning: no grid points on interval from  415338.62504102785.5000 to  415343.25004102783.7500
 Warning: no grid points on interval from  415343.25004102783.7500 to  415347.87504102781.7500
 Warning: no grid points on interval from  415352.53124102780.0000 to  415357.15624102778.0000
 Warning: no grid points on interval from  415357.15624102778.0000 to  415361.78124102776.2500
 Warning: no grid points on interval from  415361.78124102776.2500 to  415366.43754102774.2500
 Warning: no grid points on interval from  415371.06254102772.5000 to  415375.68754102770.5000
 Warning: no grid points on interval from  415375.68754102770.5000 to  415380.34384102768.7500
 Warning: no grid points on interval from  415380.34384102768.7500 to  415384.96884102766.7500
 Warning: no grid points on interval from  415389.59384102765.0000 to  415394.25004102763.0000
 Warning: no grid points on interval from  415394.25004102763.0000 to  415398.87504102761.2500
 Warning: no grid points on interval from  415398.87504102761.2500 to  415403.50004102759.2500
 Warning: no grid points on interval from  415408.15624102757.5000 to  415412.78124102755.5000
 Warning: no grid points on interval from  415412.78124102755.5000 to  415417.40624102753.7500
 Warning: no grid points on interval from  415417.40624102753.7500 to  415422.06254102751.7500
 Warning: no grid points on interval from  415426.68754102750.0000 to  415431.31254102748.0000
 Warning: no grid points on interval from  415431.31254102748.0000 to  415435.96884102746.2500
 Warning: no grid points on interval from  415435.96884102746.2500 to  415440.59384102744.2500
 Warning: no grid points on interval from  415445.25004102742.5000 to  415449.87504102740.5000
 Warning: no grid points on interval from  415449.87504102740.5000 to  415454.50004102738.7500
 Warning: no grid points on interval from  415454.50004102738.7500 to  415459.15624102737.0000
 Warning: no grid points on interval from  415463.78124102735.0000 to  415468.40624102733.2500
 Warning: no grid points on interval from  415468.40624102733.2500 to  415473.06254102731.2500
 Warning: no grid points on interval from  415473.06254102731.2500 to  415477.68754102729.5000
 Warning: no grid points on interval from  415482.31254102727.5000 to  415486.96884102725.7500
 Warning: no grid points on interval from  415486.96884102725.7500 to  415491.59384102723.7500
 Warning: no grid points on interval from  415491.59384102723.7500 to  415496.21884102722.0000
 Warning: no grid points on interval from  415500.87504102720.0000 to  415505.50004102718.2500
 Warning: no grid points on interval from  415505.50004102718.2500 to  415510.12504102716.2500
 Warning: no grid points on interval from  415510.12504102716.2500 to  415514.78124102714.5000
 Warning: no grid points on interval from  415519.40624102712.5000 to  415524.06254102710.7500
 Warning: no grid points on interval from  415524.06254102710.7500 to  415528.68754102708.7500
 Warning: no grid points on interval from  415528.68754102708.7500 to  415533.31254102707.0000
 Warning: no grid points on interval from  415537.93754102705.0000 to  415542.59384102703.2500
 Warning: no grid points on interval from  415542.59384102703.2500 to  415547.21884102701.2500
 Warning: no grid points on interval from  415547.21884102701.2500 to  415551.87504102699.5000
 Warning: no grid points on interval from  415556.50004102697.5000 to  415561.12504102695.7500
 Warning: no grid points on interval from  415561.12504102695.7500 to  415565.78124102693.7500
 Warning: no grid points on interval from  415565.78124102693.7500 to  415570.40624102692.0000
 Warning: no grid points on interval from  415575.03124102690.0000 to  415579.68754102688.2500
 Warning: no grid points on interval from  415579.68754102688.2500 to  415584.31254102686.2500
 Warning: no grid points on interval from  415584.31254102686.2500 to  415588.93754102684.5000
 Warning: no grid points on interval from  415593.59384102682.5000 to  415598.21884102680.7500
 Warning: no grid points on interval from  415598.21884102680.7500 to  415602.84384102678.7500
 Warning: no grid points on interval from  415602.84384102678.7500 to  415607.50004102677.0000
 Warning: no grid points on interval from  415612.12504102675.0000 to  415616.75004102673.2500
 Warning: no grid points on interval from  415616.75004102673.2500 to  415621.40624102671.2500
 Warning: no grid points on interval from  415621.40624102671.2500 to  415626.03124102669.5000
 Warning: no grid points on interval from  415630.68754102667.5000 to  415635.31254102665.7500
 Warning: no grid points on interval from  415635.31254102665.7500 to  415639.93754102663.7500
 Warning: no grid points on interval from  415639.93754102663.7500 to  415644.59384102662.0000
 Warning: no grid points on interval from  415649.21884102660.0000 to  415653.84384102658.2500
 Warning: no grid points on interval from  415653.84384102658.2500 to  415658.50004102656.2500
 Warning: no grid points on interval from  415658.50004102656.2500 to  415663.12504102654.5000
 Warning: no grid points on interval from  415667.75004102652.5000 to  415672.40624102650.7500
 Warning: no grid points on interval from  415672.40624102650.7500 to  415677.03124102648.7500
 Warning: no grid points on interval from  415677.03124102648.7500 to  415681.65624102647.0000
 Warning: no grid points on interval from  415686.31254102645.0000 to  415690.93754102643.2500
 Warning: no grid points on interval from  415690.93754102643.2500 to  415695.56254102641.2500
 Warning: no grid points on interval from  415695.56254102641.2500 to  415700.21884102639.5000
 Warning: no grid points on interval from  415704.84384102637.5000 to  415709.46884102635.7500
 Warning: no grid points on interval from  415709.46884102635.7500 to  415714.12504102633.7500
 Warning: no grid points on interval from  415714.12504102633.7500 to  415718.75004102632.0000
 Warning: no grid points on interval from  415723.37504102630.0000 to  415728.03124102628.2500
 Warning: no grid points on interval from  415728.03124102628.2500 to  415732.65624102626.2500
 Warning: no grid points on interval from  415732.65624102626.2500 to  415737.31254102624.5000
 Warning: no grid points on interval from  415741.93754102622.5000 to  415746.56254102620.7500
 Warning: no grid points on interval from  415746.56254102620.7500 to  415751.21884102619.0000
 Warning: no grid points on interval from  415751.21884102619.0000 to  415755.84384102617.0000
 Warning: no grid points on interval from  415760.46884102615.2500 to  415765.12504102613.2500
 Warning: no grid points on interval from  415765.12504102613.2500 to  415769.75004102611.5000
 Warning: no grid points on interval from  415769.75004102611.5000 to  415774.37504102609.5000
 Warning: no grid points on interval from  415779.03124102607.7500 to  415783.65624102605.7500
 Warning: no grid points on interval from  415783.65624102605.7500 to  415788.28124102604.0000
 Warning: no grid points on interval from  415788.28124102604.0000 to  415792.93754102602.0000
 Warning: no grid points on interval from  415797.56254102600.2500 to  415802.18754102598.2500
 Warning: no grid points on interval from  415802.18754102598.2500 to  415806.84384102596.5000
 Warning: no grid points on interval from  415806.84384102596.5000 to  415811.46884102594.5000
 Warning: no grid points on interval from  415816.12504102592.7500 to  415820.75004102590.7500
 Warning: no grid points on interval from  415820.75004102590.7500 to  415825.37504102589.0000
 Warning: no grid points on interval from  415825.37504102589.0000 to  415830.00004102587.0000
 Warning: no grid points on interval from  415834.65624102585.2500 to  415839.28124102583.2500
 Warning: no grid points on interval from  415839.28124102583.2500 to  415843.93754102581.5000
 Warning: no grid points on interval from  415843.93754102581.5000 to  415848.56254102579.5000
 Warning: no grid points on interval from  415853.18754102577.7500 to  415857.84384102575.7500
 Warning: no grid points on interval from  415857.84384102575.7500 to  415862.46884102574.0000
 Warning: no grid points on interval from  415862.46884102574.0000 to  415867.09384102572.0000
 Warning: no grid points on interval from  415871.75004102570.2500 to  415876.37504102568.2500
 Warning: no grid points on interval from  415876.37504102568.2500 to  415881.00004102566.5000
 Warning: no grid points on interval from  415881.00004102566.5000 to  415885.65624102564.5000
 Warning: no grid points on interval from  415890.28124102562.7500 to  415894.90624102560.7500
 Warning: no grid points on interval from  415894.90624102560.7500 to  415899.56254102559.0000
 Warning: no grid points on interval from  415899.56254102559.0000 to  415904.18754102557.0000
 Warning: no grid points on interval from  415908.81254102555.2500 to  415913.46884102553.2500
 Warning: no grid points on interval from  415913.46884102553.2500 to  415918.09384102551.5000
 Warning: no grid points on interval from  415918.09384102551.5000 to  415922.75004102549.5000
 Warning: no grid points on interval from  415927.37504102547.7500 to  415932.00004102545.7500
 Warning: no grid points on interval from  415932.00004102545.7500 to  415936.65624102544.0000
 Warning: no grid points on interval from  415936.65624102544.0000 to  415941.28124102542.0000
 Warning: no grid points on interval from  415945.90624102540.2500 to  415950.56254102538.2500
 Warning: no grid points on interval from  415950.56254102538.2500 to  415955.18754102536.5000
 Warning: no grid points on interval from  415955.18754102536.5000 to  415959.81254102534.5000
 Warning: no grid points on interval from  415964.46884102532.7500 to  415969.09384102530.7500
 Warning: no grid points on interval from  415969.09384102530.7500 to  415973.71884102529.0000
 Warning: no grid points on interval from  415973.71884102529.0000 to  415978.37504102527.0000
 Warning: no grid points on interval from  415983.00004102525.2500 to  415987.62504102523.2500
 Warning: no grid points on interval from  415987.62504102523.2500 to  415992.28124102521.5000
 Warning: no grid points on interval from  415992.28124102521.5000 to  415996.90624102519.5000
 Warning: no grid points on interval from  416001.53124102517.7500 to  416006.18754102515.7500
 Warning: no grid points on interval from  416006.18754102515.7500 to  416010.81254102514.0000
 Warning: no grid points on interval from  416010.81254102514.0000 to  416015.43754102512.0000
 Warning: no grid points on interval from  416020.09384102510.2500 to  416024.71884102508.2500
 Warning: no grid points on interval from  416024.71884102508.2500 to  416029.37504102506.5000
 Warning: no grid points on interval from  416029.37504102506.5000 to  416034.00004102504.5000
 Warning: no grid points on interval from  416038.62504102502.7500 to  416043.28124102501.0000
 Warning: no grid points on interval from  416043.28124102501.0000 to  416047.90624102499.0000
 Warning: no grid points on interval from  416047.90624102499.0000 to  416052.53124102497.2500
 Warning: no grid points on interval from  416057.18754102495.2500 to  416061.81254102493.5000
 Warning: no grid points on interval from  416061.81254102493.5000 to  416066.43754102491.5000
 Warning: no grid points on interval from  416066.43754102491.5000 to  416071.09384102489.7500
 Warning: no grid points on interval from  416075.71884102487.7500 to  416080.34384102486.0000
 Warning: no grid points on interval from  416080.34384102486.0000 to  416085.00004102484.0000
 Warning: no grid points on interval from  416085.00004102484.0000 to  416089.62504102482.2500
 Warning: no grid points on interval from  416094.25004102480.2500 to  416098.90624102478.5000
 Warning: no grid points on interval from  416098.90624102478.5000 to  416103.53124102476.5000
 Warning: no grid points on interval from  416103.53124102476.5000 to  416108.18754102474.7500
 Warning: no grid points on interval from  416112.81254102472.7500 to  416117.43754102471.0000
 Warning: no grid points on interval from  416117.43754102471.0000 to  416122.09384102469.0000
 Warning: no grid points on interval from  416122.09384102469.0000 to  416126.71884102467.2500
 Warning: no grid points on interval from  416131.34384102465.2500 to  416136.00004102463.5000
 Warning: no grid points on interval from  416136.00004102463.5000 to  416140.62504102461.5000
 Warning: no grid points on interval from  416140.62504102461.5000 to  416145.25004102459.7500
 Warning: no grid points on interval from  416149.90624102457.7500 to  416154.53124102456.0000
 Warning: no grid points on interval from  416154.53124102456.0000 to  416159.15624102454.0000
 Warning: no grid points on interval from  416159.15624102454.0000 to  416163.81254102452.2500
 Warning: no grid points on interval from  416168.43754102450.2500 to  416173.06254102448.5000
 Warning: no grid points on interval from  416173.06254102448.5000 to  416177.71884102446.5000
 Warning: no grid points on interval from  416177.71884102446.5000 to  416182.34384102444.7500
 Warning: no grid points on interval from  416186.96884102442.7500 to  416191.62504102441.0000
 Warning: no grid points on interval from  416191.62504102441.0000 to  416196.25004102439.0000
 Warning: no grid points on interval from  416196.25004102439.0000 to  416200.87504102437.2500
 Warning: no grid points on interval from  416205.53124102435.2500 to  416210.15624102433.5000
 Warning: no grid points on interval from  416210.15624102433.5000 to  416214.81254102431.5000
 Warning: no grid points on interval from  416214.81254102431.5000 to  416219.43754102429.7500
 Warning: no grid points on interval from  416224.06254102427.7500 to  416228.71884102426.0000
 Warning: no grid points on interval from  416228.71884102426.0000 to  416233.34384102424.0000
 Warning: no grid points on interval from  416233.34384102424.0000 to  416237.96884102422.2500
 Warning: no grid points on interval from  416242.62504102420.2500 to  416247.25004102418.5000
 Warning: no grid points on interval from  416247.25004102418.5000 to  416251.87504102416.5000
 Warning: no grid points on interval from  416251.87504102416.5000 to  416256.53124102414.7500
 Warning: no grid points on interval from  416261.15624102412.7500 to  416265.78124102411.0000
 Warning: no grid points on interval from  416265.78124102411.0000 to  416270.43754102409.0000
 Warning: no grid points on interval from  416270.43754102409.0000 to  416275.06254102407.2500
 Warning: no grid points on interval from  416279.68754102405.2500 to  416284.34384102403.5000
 Warning: no grid points on interval from  416284.34384102403.5000 to  416288.96884102401.5000
 Warning: no grid points on interval from  416288.96884102401.5000 to  416293.62504102399.7500
 Warning: no grid points on interval from  416298.25004102397.7500 to  416302.87504102396.0000
 Warning: no grid points on interval from  416302.87504102396.0000 to  416307.50004102394.0000
 Warning: no grid points on interval from  416307.50004102394.0000 to  416312.15624102392.2500
 Warning: no grid points on interval from  416316.78124102390.2500 to  416321.43754102388.5000
 Warning: no grid points on interval from  416321.43754102388.5000 to  416326.06254102386.5000
 Warning: no grid points on interval from  416326.06254102386.5000 to  416330.68754102384.7500
 Warning: no grid points on interval from  416335.34384102382.7500 to  416339.96884102381.0000
 Warning: no grid points on interval from  416339.96884102381.0000 to  416344.59384102379.2500
 Warning: no grid points on interval from  416344.59384102379.2500 to  416349.25004102377.2500
 Warning: no grid points on interval from  416353.87504102375.5000 to  416358.50004102373.5000
 Warning: no grid points on interval from  416358.50004102373.5000 to  416363.15624102371.7500
 Warning: no grid points on interval from  416363.15624102371.7500 to  416367.78124102369.7500
 Warning: no grid points on interval from  416372.40624102368.0000 to  416377.06254102366.0000
 Warning: no grid points on interval from  416377.06254102366.0000 to  416381.68754102364.2500
 Warning: no grid points on interval from  416381.68754102364.2500 to  416386.31254102362.2500
 Warning: no grid points on interval from  416390.96884102360.5000 to  416395.59384102358.5000
 Warning: no grid points on interval from  416395.59384102358.5000 to  416400.25004102356.7500
 Warning: no grid points on interval from  416400.25004102356.7500 to  416404.87504102354.7500
 Warning: no grid points on interval from  416409.50004102353.0000 to  416414.15624102351.0000
 Warning: no grid points on interval from  416414.15624102351.0000 to  416418.78124102349.2500
 Warning: no grid points on interval from  416418.78124102349.2500 to  416423.40624102347.2500
 Warning: no grid points on interval from  416428.06254102345.5000 to  416432.68754102343.5000
 Warning: no grid points on interval from  416432.68754102343.5000 to  416437.31254102341.7500
 Warning: no grid points on interval from  416437.31254102341.7500 to  416441.96884102339.7500
 Warning: no grid points on interval from  416446.59384102338.0000 to  416451.21884102336.0000
 Warning: no grid points on interval from  416451.21884102336.0000 to  416455.87504102334.2500
 Warning: no grid points on interval from  416455.87504102334.2500 to  416460.50004102332.2500
 Warning: no grid points on interval from  416465.12504102330.5000 to  416469.78124102328.5000
 Warning: no grid points on interval from  416469.78124102328.5000 to  416474.40624102326.7500
 Warning: no grid points on interval from  416474.40624102326.7500 to  416479.03124102324.7500
 Warning: no grid points on interval from  416483.68754102323.0000 to  416488.31254102321.0000
 Warning: no grid points on interval from  416488.31254102321.0000 to  416492.93754102319.2500
 Warning: no grid points on interval from  416492.93754102319.2500 to  416497.59384102317.2500
 Warning: no grid points on interval from  416502.21884102315.5000 to  416506.87504102313.5000
 Warning: no grid points on interval from  416506.87504102313.5000 to  416511.50004102311.7500
 Warning: no grid points on interval from  416511.50004102311.7500 to  416516.12504102309.7500
 Warning: no grid points on interval from  416520.78124102308.0000 to  416525.40624102306.0000
 Warning: no grid points on interval from  416525.40624102306.0000 to  416530.03124102304.2500
 Warning: no grid points on interval from  416530.03124102304.2500 to  416534.68754102302.2500
 Warning: no grid points on interval from  416539.31254102300.5000 to  416543.93754102298.5000
 Warning: no grid points on interval from  416543.93754102298.5000 to  416548.59384102296.7500
 Warning: no grid points on interval from  416548.59384102296.7500 to  416553.21884102294.7500
 Warning: no grid points on interval from  416557.84384102293.0000 to  416562.50004102291.0000
 Warning: no grid points on interval from  416562.50004102291.0000 to  416567.12504102289.2500
 Warning: no grid points on interval from  416567.12504102289.2500 to  416571.75004102287.2500
 Warning: no grid points on interval from  416576.40624102285.5000 to  416581.03124102283.5000
 Warning: no grid points on interval from  416581.03124102283.5000 to  416585.68754102281.7500
 Warning: no grid points on interval from  416585.68754102281.7500 to  416590.31254102279.7500
 Warning: no grid points on interval from  416594.93754102278.0000 to  416599.59384102276.0000
 Warning: no grid points on interval from  416599.59384102276.0000 to  416604.21884102274.2500
 Warning: no grid points on interval from  416604.21884102274.2500 to  416608.84384102272.2500
 Warning: no grid points on interval from  416613.50004102270.5000 to  416618.12504102268.5000
 Warning: no grid points on interval from  416618.12504102268.5000 to  416622.75004102266.7500
 Warning: no grid points on interval from  416622.75004102266.7500 to  416627.40624102264.7500
 Warning: no grid points on interval from  416632.03124102263.0000 to  416636.65624102261.2500
 Warning: no grid points on interval from  416636.65624102261.2500 to  416641.31254102259.2500
 Warning: no grid points on interval from  416641.31254102259.2500 to  416645.93754102257.5000
 Warning: no grid points on interval from  416650.56254102255.5000 to  416655.21884102253.7500
 Warning: no grid points on interval from  416655.21884102253.7500 to  416659.84384102251.7500
 Warning: no grid points on interval from  416659.84384102251.7500 to  416664.46884102250.0000
 Warning: no grid points on interval from  416669.12504102248.0000 to  416673.75004102246.2500
 Warning: no grid points on interval from  416673.75004102246.2500 to  416678.37504102244.2500
 Warning: no grid points on interval from  416678.37504102244.2500 to  416683.03124102242.5000
 Warning: no grid points on interval from  416687.65624102240.5000 to  416692.31254102238.7500
 Warning: no grid points on interval from  416692.31254102238.7500 to  416696.93754102236.7500
 Warning: no grid points on interval from  416696.93754102236.7500 to  416701.56254102235.0000
 Warning: no grid points on interval from  416706.21884102233.0000 to  416710.84384102231.2500
 Warning: no grid points on interval from  416710.84384102231.2500 to  416715.46884102229.2500
 Warning: no grid points on interval from  416715.46884102229.2500 to  416720.12504102227.5000
 Warning: no grid points on interval from  416724.75004102225.5000 to  416729.37504102223.7500
 Warning: no grid points on interval from  416729.37504102223.7500 to  416734.03124102221.7500
 Warning: no grid points on interval from  416734.03124102221.7500 to  416738.65624102220.0000
 Warning: no grid points on interval from  416743.28124102218.0000 to  416747.93754102216.2500
 Warning: no grid points on interval from  416747.93754102216.2500 to  416752.56254102214.2500
 Warning: no grid points on interval from  416752.56254102214.2500 to  416757.18754102212.5000
 Warning: no grid points on interval from  416761.84384102210.5000 to  416766.46884102208.7500
 Warning: no grid points on interval from  416766.46884102208.7500 to  416771.12504102206.7500
 Warning: no grid points on interval from  416771.12504102206.7500 to  416775.75004102205.0000
 Warning: no grid points on interval from  416780.37504102203.0000 to  416785.00004102201.2500
 Warning: no grid points on interval from  416785.00004102201.2500 to  416789.65624102199.2500
 Warning: no grid points on interval from  416789.65624102199.2500 to  416794.28124102197.5000
 Warning: no grid points on interval from  416798.93754102195.5000 to  416803.56254102193.7500
 Warning: no grid points on interval from  416803.56254102193.7500 to  416808.18754102191.7500
 Warning: no grid points on interval from  416808.18754102191.7500 to  416812.84384102190.0000
 Warning: no grid points on interval from  416817.46884102188.0000 to  416822.09384102186.2500
 Warning: no grid points on interval from  416822.09384102186.2500 to  416826.75004102184.2500
 Warning: no grid points on interval from  416826.75004102184.2500 to  416831.37504102182.5000
 Warning: no grid points on interval from  416836.00004102180.5000 to  416840.65624102178.7500
 Warning: no grid points on interval from  416840.65624102178.7500 to  416845.28124102176.7500
 Warning: no grid points on interval from  416845.28124102176.7500 to  416849.90624102175.0000
 Warning: no grid points on interval from  416854.56254102173.0000 to  416859.18754102171.2500
 Warning: no grid points on interval from  416859.18754102171.2500 to  416863.81254102169.2500
 Warning: no grid points on interval from  416863.81254102169.2500 to  416868.46884102167.5000
 Warning: no grid points on interval from  416873.09384102165.5000 to  416877.75004102163.7500
 Warning: no grid points on interval from  416877.75004102163.7500 to  416882.37504102161.7500
 Warning: no grid points on interval from  416882.37504102161.7500 to  416887.00004102160.0000
 Warning: no grid points on interval from  416891.65624102158.0000 to  416896.28124102156.2500
 Warning: no grid points on interval from  416896.28124102156.2500 to  416900.90624102154.2500
 Warning: no grid points on interval from  416900.90624102154.2500 to  416905.56254102152.5000
 Warning: no grid points on interval from  416910.18754102150.5000 to  416914.81254102148.7500
 Warning: no grid points on interval from  416914.81254102148.7500 to  416919.46884102146.7500
 Warning: no grid points on interval from  416919.46884102146.7500 to  416924.09384102145.0000
 Warning: no grid points on interval from  416928.71884102143.0000 to  416933.37504102141.2500
 Warning: no grid points on interval from  416933.37504102141.2500 to  416938.00004102139.5000
 Warning: no grid points on interval from  416938.00004102139.5000 to  416942.62504102137.5000
 Warning: no grid points on interval from  416947.28124102135.7500 to  416951.90624102133.7500
 Warning: no grid points on interval from  416951.90624102133.7500 to  416956.53124102132.0000
 Warning: no grid points on interval from  416956.53124102132.0000 to  416961.18754102130.0000
 Warning: no grid points on interval from  416965.81254102128.2500 to  416970.43754102126.2500
 Warning: no grid points on interval from  416970.43754102126.2500 to  416975.09384102124.5000
 Warning: no grid points on interval from  416975.09384102124.5000 to  416979.71884102122.5000
 Warning: no grid points on interval from  416984.37504102120.7500 to  416989.00004102118.7500
 Warning: no grid points on interval from  416989.00004102118.7500 to  416993.62504102117.0000
 Warning: no grid points on interval from  416993.62504102117.0000 to  416998.28124102115.0000
 Warning: no grid points on interval from  417002.90624102113.2500 to  417007.53124102111.2500
 Warning: no grid points on interval from  417007.53124102111.2500 to  417012.18754102109.5000
 Warning: no grid points on interval from  417012.18754102109.5000 to  417016.81254102107.5000
 Warning: no grid points on interval from  417021.43754102105.7500 to  417026.09384102103.7500
 Warning: no grid points on interval from  417026.09384102103.7500 to  417030.71884102102.0000
 Warning: no grid points on interval from  417030.71884102102.0000 to  417035.34384102100.0000
 Warning: no grid points on interval from  417040.00004102098.2500 to  417044.62504102096.2500
 Warning: no grid points on interval from  417044.62504102096.2500 to  417049.25004102094.5000
 Warning: no grid points on interval from  417049.25004102094.5000 to  417053.90624102092.5000
 Warning: no grid points on interval from  417058.53124102090.7500 to  417063.18754102088.7500
 Warning: no grid points on interval from  417063.18754102088.7500 to  417067.81254102087.0000
 Warning: no grid points on interval from  417067.81254102087.0000 to  417072.43754102085.0000
 Warning: no grid points on interval from  417077.06254102083.2500 to  417081.71884102081.2500
 Warning: no grid points on interval from  417081.71884102081.2500 to  417086.34384102079.5000
 Warning: no grid points on interval from  417086.34384102079.5000 to  417091.00004102077.5000
 Warning: no grid points on interval from  417095.62504102075.7500 to  417100.25004102073.7500
 Warning: no grid points on interval from  417100.25004102073.7500 to  417104.90624102072.0000
 Warning: no grid points on interval from  417104.90624102072.0000 to  417109.53124102070.0000
 Warning: no grid points on interval from  417114.15624102068.2500 to  417118.81254102066.2500
 Warning: no grid points on interval from  417118.81254102066.2500 to  417123.43754102064.5000
 Warning: no grid points on interval from  417123.43754102064.5000 to  417128.06254102062.5000
 Warning: no grid points on interval from  417132.71884102060.7500 to  417137.34384102058.7500
 Warning: no grid points on interval from  417137.34384102058.7500 to  417141.96884102057.0000
 Warning: no grid points on interval from  417141.96884102057.0000 to  417146.62504102055.0000
 Warning: no grid points on interval from  417151.25004102053.2500 to  417155.87504102051.2500
 Warning: no grid points on interval from  417155.87504102051.2500 to  417160.53124102049.5000
 Warning: no grid points on interval from  417160.53124102049.5000 to  417165.15624102047.5000
 Warning: no grid points on interval from  417169.81254102045.7500 to  417174.43754102043.7500
 Warning: no grid points on interval from  417174.43754102043.7500 to  417179.06254102042.0000
 Warning: no grid points on interval from  417179.06254102042.0000 to  417183.71884102040.0000
 Warning: no grid points on interval from  417188.34384102038.2500 to  417192.96884102036.2500
 Warning: no grid points on interval from  417192.96884102036.2500 to  417197.62504102034.5000
 Warning: no grid points on interval from  417197.62504102034.5000 to  417202.25004102032.5000
 Warning: no grid points on interval from  417206.87504102030.7500 to  417211.53124102028.7500
 Warning: no grid points on interval from  417211.53124102028.7500 to  417216.15624102027.0000
 Warning: no grid points on interval from  417216.15624102027.0000 to  417220.78124102025.0000
 Warning: no grid points on interval from  417225.43754102023.2500 to  417230.06254102021.5000
 Warning: no grid points on interval from  417230.06254102021.5000 to  417234.68754102019.5000
 Warning: no grid points on interval from  417234.68754102019.5000 to  417239.34384102017.7500
 Warning: no grid points on interval from  417243.96884102015.7500 to  417248.59384102014.0000
 Warning: no grid points on interval from  417248.59384102014.0000 to  417253.25004102012.0000
 Warning: no grid points on interval from  417253.25004102012.0000 to  417257.87504102010.2500
 Warning: no grid points on interval from  417262.50004102008.2500 to  417267.15624102006.5000
 Warning: no grid points on interval from  417267.15624102006.5000 to  417271.78124102004.5000
 Warning: no grid points on interval from  417271.78124102004.5000 to  417276.43754102002.7500
 Warning: no grid points on interval from  417281.06254102000.7500 to  417285.68754101999.0000
 Warning: no grid points on interval from  417285.68754101999.0000 to  417290.34384101997.0000
 Warning: no grid points on interval from  417290.34384101997.0000 to  417294.96884101995.2500
 Warning: no grid points on interval from  417299.59384101993.2500 to  417304.25004101991.5000
 Warning: no grid points on interval from  417304.25004101991.5000 to  417308.87504101989.5000
[...]
 $
    
 $ **** COMMANDS FOR OUTPUT REQUESTS pagina 40 **********************************
    
 $ ------------------------------------------------------------------------------
    
 $
    
 $Station Nantucket. Location No. punto fuera bahia
    
 OUTPut OPTions TAB 16
    
 POINT   'point1' 414412  4108535
    
 $401817  4099595
    
 $
    
 BLOCK   'COMPGRID' NOHEADER 'batimetria.dep'
    
 $ specout pagina 92
    
 $ SPECOUT 'fuera' SPEC1D 'fuera_1D.spc' &
    
 $                 OUTPUT 19971001.000000 1. HR
    
 $ TABLE   'fuera' NOHEADER 'fuera.hs'       HS
    
 $
    
 TABLE 'COMPGRID' NOHEADER 'acap.lon'       XP
    
 TABLE 'COMPGRID' NOHEADER 'acap.lat'       YP
    
 TABLE 'COMPGRID' NOHEADER 'acap.dep'       DEPTH
    
 TABLE 'COMPGRID' NOHEADER 'acap.hs'        HS
    
 TABLE 'COMPGRID' NOHEADER 'acap.rtp'        RTP
    
 TABLE 'COMPGRID' NOHEADER 'acap.mdir'       DIR
    
 $NGRID 'nest1' 432146.9898 4579823.582 0 2800 2800 28 28
    
 $NESTOUT 'nest1' 'contornos.dat'
    
 $BLOCK 'COMPGRID' NOHEAD 'Malla_ext.dat' DEP 3 XP YP HSIGN TM02 RTP DIR
    
 TABLE 'point1' HEAD 'juan.TBL' Distance DEP HS TM01 DIR XP YP PER PDIR
    
 $
    
 $ ------------------------------------------------------------------------------
    
 $
    
 $ **** GENERAL COMMANDS ********************************************************
    
 $ ------------------------------------------------------------------------------
    
 $
    
 TEST  1,0
    
 $ ------------------------------------------------------------------------------
    
 $
    
 $ **** COMPUTE COMMAND *********************************************************
    
 $ ------------------------------------------------------------------------------
    
 $
    
 COMPUTE
 ** Warning          : Limiter is de-activated in case of no quadruplets

----------------------------------------------------------------
                  COMPUTATIONAL PART OF SWAN
----------------------------------------------------------------

 Gridresolution       : MXC             316 MYC            340
                      : MCGRD        107441
                      : MSC              35 MDC             72
                      : MTC               1
                      : NSTATC            0 ITERMX          50
 Propagation flags    : ITFRE             1 IREFR            1
 Source term flags    : IBOT              1 ISURF            1
                      : IWCAP             0 IWIND            0
                      : ITRIAD            0 IQUAD            0
                      : IVEG              0 ITURBV           0
                      : IMUD              0
 Spatial step         : DX       0.1998E+02 DY      0.2000E+02
 Spectral bin         : df/f     0.1041E+00 DDIR    0.5000E+01
 Physical constants   : GRAV     0.9810E+01 RHO     0.1025E+04
 Wind input           : WSPEED   0.0000E+00 DIR     0.0000E+00
 Tail parameters      : E(f)     0.5000E+01 E(k)    0.2500E+01
                      : A(f)     0.6000E+01 A(k)    0.3000E+01
 Accuracy parameters  : DREL     0.1000E-01 NPNTS   0.9950E+02
                      : DHABS    0.5000E-02 CURVAT  0.5000E-02
                      : GRWMX    0.1000E+21
 Drying/flooding      : LEVEL    0.1000E+01 DEPMIN  0.5000E-01
 The nautical  convention for wind and wave directions is used
 Scheme for geographic propagation is SORDUP
 Scheme geogr. space  : PROPSC            2 ICMAX            7
 Scheme spectral space: CSS      0.5000E+00 CDD     0.5000E+00
 Current is off
 Quadruplets is off
 Triads is off
 JONSWAP (`73)        : GAMMA    0.3800E-01
 Vegetation is off
 Turbulence is off
 Fluid mud is off
 Whitecapping is off
 Battjes&Janssen (`78): ALPHA    0.1000E+01 GAMMA   0.7300E+00
 Set-up is off
 Diffraction is off
 Janssen (`89,`90)    : ALPHA    0.1000E-01 KAPPA   0.4100E+00
 Janssen (`89,`90)    : RHOA     0.1280E+01 RHOW    0.1025E+04

 1st and 2nd gen. wind: CF10     0.1880E+03 CF20    0.5900E+00
                      : CF30     0.1200E+00 CF40    0.2500E+03
                      : CF50     0.2300E-02 CF60   -0.2230E+00
                      : CF70     0.0000E+00 CF80   -0.5600E+00
                      : RHOAW    0.1249E-02 EDMLPM  0.3600E-02
                      : CDRAG    0.1230E-02 UMIN    0.1000E+01
                      : LIM_PM   0.1300E+00

 iteration    1; sweep 1
 iteration    1; sweep 2
 iteration    1; sweep 3
 iteration    1; sweep 4
 not possible to compute, first iteration

 iteration    2; sweep 1
 iteration    2; sweep 2
 iteration    2; sweep 3
 iteration    2; sweep 4
 accuracy OK in  20.14 % of wet grid points ( 99.50 % required)

 iteration    3; sweep 1
 iteration    3; sweep 2
 iteration    3; sweep 3
 iteration    3; sweep 4
 accuracy OK in   0.97 % of wet grid points ( 99.50 % required)

 iteration    4; sweep 1
 iteration    4; sweep 2
 iteration    4; sweep 3
 iteration    4; sweep 4
 accuracy OK in  25.67 % of wet grid points ( 99.50 % required)

 iteration    5; sweep 1
 iteration    5; sweep 2
 iteration    5; sweep 3
 iteration    5; sweep 4
 accuracy OK in  58.21 % of wet grid points ( 99.50 % required)

 iteration    6; sweep 1
 iteration    6; sweep 2
 iteration    6; sweep 3
 iteration    6; sweep 4
 accuracy OK in  81.17 % of wet grid points ( 99.50 % required)

 iteration    7; sweep 1
 iteration    7; sweep 2
 iteration    7; sweep 3
 iteration    7; sweep 4
 accuracy OK in  88.25 % of wet grid points ( 99.50 % required)

 iteration    8; sweep 1
 iteration    8; sweep 2
 iteration    8; sweep 3
 iteration    8; sweep 4
 accuracy OK in  92.15 % of wet grid points ( 99.50 % required)

 iteration    9; sweep 1
 iteration    9; sweep 2
 iteration    9; sweep 3
 iteration    9; sweep 4
 accuracy OK in  94.64 % of wet grid points ( 99.50 % required)

 iteration   10; sweep 1
 iteration   10; sweep 2
 iteration   10; sweep 3
 iteration   10; sweep 4
 accuracy OK in  96.41 % of wet grid points ( 99.50 % required)

 iteration   11; sweep 1
 iteration   11; sweep 2
 iteration   11; sweep 3
 iteration   11; sweep 4
 accuracy OK in  97.66 % of wet grid points ( 99.50 % required)

 iteration   12; sweep 1
 iteration   12; sweep 2
 iteration   12; sweep 3
 iteration   12; sweep 4
 accuracy OK in  98.82 % of wet grid points ( 99.50 % required)

 iteration   13; sweep 1
 iteration   13; sweep 2
 iteration   13; sweep 3
 iteration   13; sweep 4
 accuracy OK in  99.15 % of wet grid points ( 99.50 % required)

 iteration   14; sweep 1
 iteration   14; sweep 2
 iteration   14; sweep 3
 iteration   14; sweep 4
 accuracy OK in  99.23 % of wet grid points ( 99.50 % required)

 iteration   15; sweep 1
 iteration   15; sweep 2
 iteration   15; sweep 3
 iteration   15; sweep 4
 accuracy OK in  99.24 % of wet grid points ( 99.50 % required)

 iteration   16; sweep 1
 iteration   16; sweep 2
 iteration   16; sweep 3
 iteration   16; sweep 4
 accuracy OK in  99.34 % of wet grid points ( 99.50 % required)

 iteration   17; sweep 1
 iteration   17; sweep 2
 iteration   17; sweep 3
 iteration   17; sweep 4
 accuracy OK in  99.38 % of wet grid points ( 99.50 % required)

 iteration   18; sweep 1
 iteration   18; sweep 2
 iteration   18; sweep 3
 iteration   18; sweep 4
 accuracy OK in  99.39 % of wet grid points ( 99.50 % required)

 iteration   19; sweep 1
 iteration   19; sweep 2
 iteration   19; sweep 3
 iteration   19; sweep 4
 accuracy OK in  99.51 % of wet grid points ( 99.50 % required)

  ** WARNING : Differences in wave height at the boundary
 Relative difference between input and computation >=   0.10
                         Hs[m]      Hs[m]      Hs[-]
     ix    iy  index   (input) (computed) (relative)
  --------------------------------------------------
    34   340  11561       0.18       0.00       1.00
    35   340  11901       0.25       0.00       1.00
    36   340  12241       0.29       0.00       1.00
    37   340  12581       0.33       0.00       1.00
    38   340  12921       0.37       0.00       1.00
    39   340  13261       0.40       0.00       1.00
    40   340  13601       0.42       0.00       1.00
    41   340  13941       0.43       0.00       1.00
    42   340  14281       0.45       0.00       1.00
    43   340  14621       0.46       0.00       1.00
    44   340  14961       0.48       0.00       1.00
    45   340  15301       0.49       0.00       1.00
    46   340  15641       0.49       0.00       1.00
    47   340  15981       0.49       0.00       1.00
    48   340  16321       0.49       0.00       1.00
    49   340  16661       0.49       0.00       1.00
    50   340  17001       0.49       0.00       1.00
    51   340  17341       0.48       0.00       1.00
    52   340  17681       0.48       0.00       1.00
    53   340  18021       0.48       0.00       1.00
    54   340  18361       0.48       0.00       1.00
    55   340  18701       0.48       0.01       0.97
    56   340  19041       0.47       0.02       0.96
    57   340  19381       0.47       0.02       0.95
    58   340  19721       0.47       0.02       0.95
    59   340  20061       0.47       0.02       0.95
    60   340  20401       0.47       0.02       0.95
    61   340  20741       0.47       0.02       0.95
    62   340  21081       0.47       0.02       0.95
    63   340  21421       0.47       0.02       0.95
    64   340  21761       0.47       0.02       0.95
    65   340  22101       0.47       0.02       0.95
    66   340  22441       0.47       0.02       0.95
    67   340  22781       0.47       0.02       0.95
    68   340  23121       0.48       0.02       0.95
    69   340  23461       0.48       0.02       0.95
    70   340  23801       0.49       0.02       0.95
    71   340  24141       0.49       0.02       0.95
    72   340  24481       0.49       0.02       0.95
    73   340  24821       0.50       0.02       0.95
    74   340  25161       0.51       0.02       0.95
    75   340  25501       0.52       0.02       0.95
    76   340  25841       0.53       0.02       0.95
    77   340  26181       0.54       0.02       0.95
    78   340  26521       0.54       0.02       0.96
    79   340  26861       0.55       0.02       0.96
    80   340  27201       0.56       0.02       0.96
    81   340  27541       0.57       0.02       0.96
    82   340  27881       0.58       0.02       0.97
    83   340  28221       0.59       0.01       0.98
    84   340  28561       0.59       0.00       1.00
    85   340  28901       0.59       0.00       1.00
    86   340  29241       0.59       0.00       1.00
    87   340  29581       0.60       0.00       1.00
    88   340  29921       0.60       0.00       1.00
    89   340  30261       0.60       0.00       1.00
    90   340  30601       0.60       0.00       1.00
    91   340  30941       0.61       0.00       1.00
    92   340  31281       0.61       0.00       1.00
    93   340  31621       0.61       0.00       1.00
    94   340  31961       0.62       0.00       1.00
    95   340  32301       0.64       0.00       1.00
    96   340  32641       0.65       0.00       1.00
    97   340  32981       0.66       0.00       1.00
    98   340  33321       0.68       0.00       1.00
    99   340  33661       0.69       0.00       1.00
   100   340  34001       0.71       0.00       1.00
   101   340  34341       0.72       0.00       1.00
   102   340  34681       0.74       0.00       1.00
   103   340  35021       0.76       0.00       1.00
   104   340  35361       0.77       0.00       1.00
   105   340  35701       0.78       0.00       1.00
   106   340  36041       0.78       0.00       1.00
   107   340  36381       0.79       0.00       1.00
   108   340  36721       0.79       0.00       1.00
   109   340  37061       0.80       0.23       0.71
   110   340  37401       0.80       0.28       0.65
   111   340  37741       0.80       0.30       0.62
   112   340  38081       0.79       0.30       0.62
   113   340  38421       0.79       0.31       0.61
   114   340  38761       0.79       0.31       0.60
   115   340  39101       0.79       0.32       0.60
   116   340  39441       0.79       0.32       0.60
   117   340  39781       0.79       0.32       0.59
   118   340  40121       0.79       0.32       0.59
   119   340  40461       0.79       0.33       0.58
   120   340  40801       0.79       0.33       0.58
   121   340  41141       0.79       0.34       0.57
   122   340  41481       0.79       0.34       0.57
   123   340  41821       0.79       0.34       0.57
   124   340  42161       0.79       0.35       0.56
   125   340  42501       0.80       0.35       0.56
   126   340  42841       0.80       0.36       0.55
   127   340  43181       0.80       0.37       0.54
   128   340  43521       0.80       0.37       0.54
   129   340  43861       0.80       0.37       0.54
   130   340  44201       0.80       0.37       0.54
   131   340  44541       0.80       0.38       0.53
   132   340  44881       0.80       0.38       0.53
   133   340  45221       0.80       0.38       0.52
   134   340  45561       0.80       0.39       0.52
   135   340  45901       0.80       0.39       0.52
   136   340  46241       0.80       0.39       0.52
   137   340  46581       0.80       0.39       0.52
   138   340  46921       0.80       0.39       0.51
   139   340  47261       0.80       0.39       0.51
   140   340  47601       0.80       0.40       0.50
   141   340  47941       0.80       0.40       0.50
   142   340  48281       0.79       0.40       0.50
   143   340  48621       0.79       0.39       0.50
   144   340  48961       0.79       0.39       0.50
   145   340  49301       0.79       0.39       0.50
   146   340  49641       0.78       0.40       0.50
   147   340  49981       0.78       0.40       0.49
   148   340  50321       0.78       0.40       0.49
   149   340  50661       0.77       0.40       0.49
   150   340  51001       0.77       0.40       0.49
   151   340  51341       0.77       0.39       0.49
   152   340  51681       0.76       0.39       0.49
   153   340  52021       0.76       0.39       0.49
   154   340  52361       0.75       0.39       0.49
   155   340  52701       0.75       0.38       0.49
   156   340  53041       0.74       0.38       0.49
   157   340  53381       0.74       0.38       0.48
   158   340  53721       0.73       0.38       0.48
   159   340  54061       0.72       0.37       0.48
   160   340  54401       0.72       0.37       0.48
   161   340  54741       0.71       0.37       0.48
   162   340  55081       0.70       0.36       0.48
   163   340  55421       0.69       0.36       0.48
   164   340  55761       0.68       0.36       0.48
   165   340  56101       0.68       0.35       0.48
   166   340  56441       0.67       0.35       0.48
   167   340  56781       0.66       0.34       0.48
   168   340  57121       0.65       0.34       0.48
   169   340  57461       0.64       0.34       0.47
   170   340  57801       0.63       0.33       0.47
   171   340  58141       0.62       0.33       0.47
   172   340  58481       0.61       0.32       0.47
   173   340  58821       0.60       0.32       0.47
   174   340  59161       0.58       0.31       0.47
   175   340  59501       0.57       0.31       0.47
   176   340  59841       0.56       0.30       0.46
   177   340  60181       0.55       0.30       0.46
   178   340  60521       0.54       0.29       0.45
   179   340  60861       0.52       0.29       0.45
   180   340  61201       0.51       0.28       0.45
   181   340  61541       0.50       0.28       0.44
   182   340  61881       0.49       0.27       0.44
   183   340  62221       0.47       0.27       0.43
   184   340  62561       0.46       0.26       0.43
   185   340  62901       0.45       0.26       0.42
   186   340  63241       0.44       0.25       0.42
   187   340  63581       0.42       0.25       0.42
   188   340  63921       0.41       0.24       0.41
   189   340  64261       0.40       0.24       0.41
   190   340  64601       0.39       0.23       0.40
   191   340  64941       0.38       0.23       0.40
   192   340  65281       0.37       0.22       0.40
   193   340  65621       0.37       0.22       0.40
   194   340  65961       0.36       0.22       0.40
   195   340  66301       0.36       0.21       0.41
   196   340  66641       0.35       0.21       0.41
   197   340  66981       0.34       0.20       0.41
   198   340  67321       0.33       0.20       0.41
   199   340  67661       0.33       0.19       0.41
   200   340  68001       0.32       0.19       0.41
   201   340  68341       0.31       0.18       0.41
   202   340  68681       0.30       0.18       0.41
   203   340  69021       0.29       0.17       0.40
   204   340  69361       0.29       0.17       0.40
   205   340  69701       0.28       0.17       0.40
   206   340  70041       0.27       0.16       0.40
   207   340  70381       0.26       0.16       0.40
   208   340  70721       0.25       0.15       0.40
   209   340  71061       0.24       0.15       0.40
   210   340  71401       0.23       0.14       0.39
   211   340  71741       0.23       0.14       0.39
   212   340  72081       0.22       0.13       0.39
   213   340  72421       0.21       0.13       0.39
   214   340  72761       0.20       0.12       0.40
   215   340  73101       0.20       0.12       0.40
   216   340  73441       0.19       0.11       0.40
   217   340  73781       0.19       0.11       0.41
   218   340  74121       0.18       0.11       0.41
   219   340  74461       0.17       0.10       0.42
   220   340  74801       0.17       0.10       0.42
   221   340  75141       0.16       0.09       0.43
   222   340  75481       0.16       0.09       0.43
   223   340  75821       0.15       0.08       0.45
   224   340  76161       0.15       0.07       0.50
   225   340  76501       0.15       0.06       0.55
   226   340  76841       0.14       0.06       0.60
   227   340  77181       0.14       0.06       0.59
   228   340  77521       0.13       0.04       0.67
   229   340  77861       0.13       0.03       0.77
   230   340  78201       0.13       0.02       0.81
   231   340  78541       0.13       0.00       1.00
   232   340  78881       0.12       0.00       1.00
   233   340  79221       0.12       0.00       1.00
   234   340  79561       0.12       0.00       1.00
   235   340  79901       0.12       0.02       0.87
   236   340  80241       0.11       0.01       0.87
   237   340  80581       0.11       0.00       1.00
   238   340  80921       0.11       0.01       0.88
   239   340  81261       0.10       0.00       1.00
   240   340  81601       0.10       0.00       1.00
   241   340  81941       0.10       0.01       0.89
   242   340  82281       0.10       0.01       0.89
   243   340  82621       0.10       0.01       0.89
   244   340  82961       0.10       0.01       0.89
   245   340  83301       0.10       0.01       0.89
   246   340  83641       0.09       0.01       0.90
   247   340  83981       0.09       0.01       0.90
   248   340  84321       0.09       0.01       0.91
   249   340  84661       0.09       0.01       0.91
   250   340  85001       0.09       0.01       0.86
   293   340  99621       0.58       2.01       2.45
   294   340  99961       2.54       2.12       0.16
   295   340 100301       2.58       2.20       0.15
   296   340 100641       2.63       2.26       0.14
   297   340 100981       2.67       2.30       0.14
   298   340 101321       2.71       2.33       0.14
   299   340 101661       2.75       2.35       0.15
   300   340 102001       2.78       2.37       0.15
   301   340 102341       2.82       2.40       0.15
   302   340 102681       2.85       2.43       0.15
   303   340 103021       2.88       2.46       0.14
   304   340 103361       2.91       2.51       0.14
   305   340 103701       2.93       2.55       0.13
   306   340 104041       2.95       2.60       0.12
   307   340 104381       2.98       2.64       0.11

    
 STOP
