1

                    Execution started at 20170928.160848         



                    ---------------------------------------
                                     SWAN
                    SIMULATION OF WAVES IN NEAR SHORE AREAS
                             VERSION NUMBER 41.10               
                    ---------------------------------------


    
 PROJ 'gridOut' 'ca01'
    
 $
    
 SET level=2.4  NAUTICAL
    
 COORDINATES CARTESIAN
    
 $ ------------------------------------------------------------------------------
    
 $
    
 $ **** COMMANDS FOR MODEL DESCRIPTION ******************************************
    
 $ ------------------------------------------------------------------------------
    
 $ CGRID ->REG XPC YPC ALPC XLENC YLENC MXC MYC ->CIRC  MDC  FLOW FHIGH  MSC
    
 CGRID   396649  4080476 338 21600 40900 200 145  CIRCLE  72 0.0345 1.00  34
 Resolution in sigma-space: df/f =  0.1041
    
 $
    
 $ ------------------------------------------------------------------------------
    
 $
    
 $ **** COMMANDS FOR INPUT FIELDS ***********************************************
    
 $ ------------------------------------------------------------------------------
    
 $ INPGRID BOTTOM  REGULAR xpinp ypinp alpinp mxinp myinp dxinp dyinp
    
 INPGRID   BOTTOM  REGULAR 374599.965  4072639.233 0 717 504 100 100
    
 $
    
 $ READINP BOTTOM fac idla
    
 $
    
 $
    
 READINP BOTTOM -1 'topo_100m.dat' 1 0 FREE
    
 $
    
 $ ------------------------------------------------------------------------------
    
 $
    
 $ **** COMMANDS FOR INPUT BOUNDARY/INITIAL CONDITIONS **************************
    
 $ ------------------------------------------------------------------------------
    
 $ NO WIND
    
 BOUN SHAPE JONSWAP 3.3 PEAK  DSPR  DEGREES
    
 $
    
 $
    
 BOUN  SIDE E CON PAR 7 16.35 158 30
    
 $BOUN  SIDE S CON PAR 3 7 158 30
    
 $
    
 $ ------------------------------------------------------------------------------
    
 $
    
 $ **** COMMANDS FOR PHYSICS pagina 30 ******************************************
    
 $ ------------------------------------------------------------------------------
    
 $
    
 BREAKING
    
 OFF QUAD
    
 OFF WCAP
    
 GEN1
    
 FRICTION JONSWAP CON
    
 $
    
 $
    
 $ ------------------------------------------------------------------------------
    
 $
    
 $ **** COMMANDS FOR OUTPUT REQUESTS pagina 40 **********************************
    
 $ ------------------------------------------------------------------------------
    
 $
    
 $Station Nantucket. Location No. punto fuera bahia
    
 OUTPut OPTions TAB 16
    
 POINT   'point1' 414412  4108535 &
 $401817  4099595
    
 NGRID 'nest1' 412214 4104048 338 6300 6780 1260 1356
    
 NESTOUT 'nest1' 'boundary.dat'
    
 $
    
 BLOCK   'COMPGRID' NOHEADER 'batimetria.dep'
    
 $ specout pagina 92
    
 $ SPECOUT 'fuera' SPEC1D 'fuera_1D.spc' &
    
 $                 OUTPUT 19971001.000000 1. HR
    
 $ TABLE   'fuera' NOHEADER 'fuera.hs'       HS
    
 $
    
 TABLE 'COMPGRID' NOHEADER 'acap.lon'       XP
    
 TABLE 'COMPGRID' NOHEADER 'acap.lat'       YP
    
 TABLE 'COMPGRID' NOHEADER 'acap.dep'       DEPTH
    
 TABLE 'COMPGRID' NOHEADER 'acap.hs'        HS
    
 TABLE 'COMPGRID' NOHEADER 'acap.rtp'        RTP
    
 TABLE 'COMPGRID' NOHEADER 'acap.mdir'       DIR
    
 $NGRID 'nest1' 432146.9898 4579823.582 0 2800 2800 28 28
    
 $NESTOUT 'nest1' 'contornos.dat'
    
 $BLOCK 'COMPGRID' NOHEAD 'Malla_ext.dat' DEP 3 XP YP HSIGN TM02 RTP DIR
    
 TABLE 'point1' HEAD 'juan.TBL' Distance DEP HS TM01 DIR XP YP PER PDIR
    
 $
    
 $ ------------------------------------------------------------------------------
    
 $
    
 $ **** GENERAL COMMANDS ********************************************************
    
 $ ------------------------------------------------------------------------------
    
 $
    
 TEST  1,0
    
 $ ------------------------------------------------------------------------------
    
 $
    
 $ **** COMPUTE COMMAND *********************************************************
    
 $ ------------------------------------------------------------------------------
    
 $
    
 COMPUTE
 ** Warning          : Limiter is de-activated in case of no quadruplets

----------------------------------------------------------------
                  COMPUTATIONAL PART OF SWAN
----------------------------------------------------------------

 Gridresolution       : MXC             201 MYC            146
                      : MCGRD         29347
                      : MSC              35 MDC             72
                      : MTC               1
                      : NSTATC            0 ITERMX          50
 Propagation flags    : ITFRE             1 IREFR            1
 Source term flags    : IBOT              1 ISURF            1
                      : IWCAP             0 IWIND            0
                      : ITRIAD            0 IQUAD            0
                      : IVEG              0 ITURBV           0
                      : IMUD              0
 Spatial step         : DX       0.1080E+03 DY      0.2821E+03
 Spectral bin         : df/f     0.1041E+00 DDIR    0.5000E+01
 Physical constants   : GRAV     0.9810E+01 RHO     0.1025E+04
 Wind input           : WSPEED   0.0000E+00 DIR     0.0000E+00
 Tail parameters      : E(f)     0.5000E+01 E(k)    0.2500E+01
                      : A(f)     0.6000E+01 A(k)    0.3000E+01
 Accuracy parameters  : DREL     0.1000E-01 NPNTS   0.9950E+02
                      : DHABS    0.5000E-02 CURVAT  0.5000E-02
                      : GRWMX    0.1000E+21
 Drying/flooding      : LEVEL    0.2400E+01 DEPMIN  0.5000E-01
 The nautical  convention for wind and wave directions is used
 Scheme for geographic propagation is SORDUP
 Scheme geogr. space  : PROPSC            2 ICMAX            7
 Scheme spectral space: CSS      0.5000E+00 CDD     0.5000E+00
 Current is off
 Quadruplets is off
 Triads is off
 JONSWAP (`73)        : GAMMA    0.3800E-01
 Vegetation is off
 Turbulence is off
 Fluid mud is off
 Whitecapping is off
 Battjes&Janssen (`78): ALPHA    0.1000E+01 GAMMA   0.7300E+00
 Set-up is off
 Diffraction is off
 Janssen (`89,`90)    : ALPHA    0.1000E-01 KAPPA   0.4100E+00
 Janssen (`89,`90)    : RHOA     0.1280E+01 RHOW    0.1025E+04

 1st and 2nd gen. wind: CF10     0.1880E+03 CF20    0.5900E+00
                      : CF30     0.1200E+00 CF40    0.2500E+03
                      : CF50     0.2300E-02 CF60   -0.2230E+00
                      : CF70     0.0000E+00 CF80   -0.5600E+00
                      : RHOAW    0.1249E-02 EDMLPM  0.3600E-02
                      : CDRAG    0.1230E-02 UMIN    0.1000E+01
                      : LIM_PM   0.1300E+00

 iteration    1; sweep 1
 iteration    1; sweep 2
 iteration    1; sweep 3
 iteration    1; sweep 4
 not possible to compute, first iteration

 iteration    2; sweep 1
 iteration    2; sweep 2
 iteration    2; sweep 3
 iteration    2; sweep 4
 accuracy OK in   6.97 % of wet grid points ( 99.50 % required)

 iteration    3; sweep 1
 iteration    3; sweep 2
 iteration    3; sweep 3
 iteration    3; sweep 4
 accuracy OK in   0.85 % of wet grid points ( 99.50 % required)

 iteration    4; sweep 1
 iteration    4; sweep 2
 iteration    4; sweep 3
 iteration    4; sweep 4
 accuracy OK in   7.44 % of wet grid points ( 99.50 % required)

 iteration    5; sweep 1
 iteration    5; sweep 2
 iteration    5; sweep 3
 iteration    5; sweep 4
 accuracy OK in  35.86 % of wet grid points ( 99.50 % required)

 iteration    6; sweep 1
 iteration    6; sweep 2
 iteration    6; sweep 3
 iteration    6; sweep 4
 accuracy OK in  75.80 % of wet grid points ( 99.50 % required)

 iteration    7; sweep 1
 iteration    7; sweep 2
 iteration    7; sweep 3
 iteration    7; sweep 4
 accuracy OK in  87.88 % of wet grid points ( 99.50 % required)

 iteration    8; sweep 1
 iteration    8; sweep 2
 iteration    8; sweep 3
 iteration    8; sweep 4
 accuracy OK in  91.82 % of wet grid points ( 99.50 % required)

 iteration    9; sweep 1
 iteration    9; sweep 2
 iteration    9; sweep 3
 iteration    9; sweep 4
 accuracy OK in  95.64 % of wet grid points ( 99.50 % required)

 iteration   10; sweep 1
 iteration   10; sweep 2
 iteration   10; sweep 3
 iteration   10; sweep 4
 accuracy OK in  96.54 % of wet grid points ( 99.50 % required)

 iteration   11; sweep 1
 iteration   11; sweep 2
 iteration   11; sweep 3
 iteration   11; sweep 4
 accuracy OK in  98.08 % of wet grid points ( 99.50 % required)

 iteration   12; sweep 1
 iteration   12; sweep 2
 iteration   12; sweep 3
 iteration   12; sweep 4
 accuracy OK in  98.36 % of wet grid points ( 99.50 % required)

 iteration   13; sweep 1
 iteration   13; sweep 2
 iteration   13; sweep 3
 iteration   13; sweep 4
 accuracy OK in  98.97 % of wet grid points ( 99.50 % required)

 iteration   14; sweep 1
 iteration   14; sweep 2
 iteration   14; sweep 3
 iteration   14; sweep 4
 accuracy OK in  99.09 % of wet grid points ( 99.50 % required)

 iteration   15; sweep 1
 iteration   15; sweep 2
 iteration   15; sweep 3
 iteration   15; sweep 4
 accuracy OK in  99.55 % of wet grid points ( 99.50 % required)


    
 STOP
